mol_bioactive_2
     RDKit          3D

151157  0  0  0  0  0  0  0  0999 V2000
   -0.0761   14.9161  -13.1760 C   0  0  0  0  0  0  0  0  0  0  0  0
   -0.1295   14.4861  -11.7070 C   0  0  2  0  0  0  0  0  0  0  0  0
   -0.2957   15.6343  -10.8613 O   0  0  0  0  0  0  0  0  0  0  0  0
   -1.6474   16.0619  -10.7655 C   0  0  0  0  0  0  0  0  0  0  0  0
    1.1464   13.7535  -11.2972 C   0  0  0  0  0  0  0  0  0  0  0  0
    2.3217   14.2545  -11.7841 N   0  0  0  0  0  0  0  0  0  0  0  0
    3.4672   13.6170  -11.4687 C   0  0  0  0  0  0  0  0  0  0  0  0
    3.5214   12.4772  -10.6900 C   0  0  0  0  0  0  0  0  0  0  0  0
    2.3266   11.9688  -10.1947 C   0  0  0  0  0  0  0  0  0  0  0  0
    1.1132   12.6108  -10.4771 C   0  0  0  0  0  0  0  0  0  0  0  0
   -0.1359   12.0200   -9.9842 C   0  0  0  0  0  0  0  0  0  0  0  0
   -0.7415   10.9461  -10.6186 N   0  0  0  0  0  0  0  0  0  0  0  0
   -0.2003   10.2072  -11.7540 C   0  0  0  0  0  0  0  0  0  0  0  0
    0.4376    8.8933  -11.3365 C   0  0  0  0  0  0  0  0  0  0  0  0
   -0.9728   12.4156   -8.9399 C   0  0  0  0  0  0  0  0  0  0  0  0
   -0.7737   13.5334   -7.9401 C   0  0  0  0  0  0  0  0  0  0  0  0
    0.2257   13.3169   -6.7629 C   0  0  0  0  0  0  0  0  0  0  0  0
   -0.1868   14.2740   -5.6173 C   0  0  0  0  0  0  0  0  0  0  0  0
    1.6556   13.7171   -7.1766 C   0  0  0  0  0  0  0  0  0  0  0  0
    0.2678   11.8642   -6.2367 C   0  0  0  0  0  0  0  0  0  0  0  0
   -0.8986   11.5434   -5.4672 O   0  0  0  0  0  0  0  0  0  0  0  0
   -0.9222   10.2444   -5.0387 C   0  0  0  0  0  0  0  0  0  0  0  0
   -2.0120   10.0601   -3.9776 C   0  0  1  0  0  0  0  0  0  0  0  0
   -2.5062    8.6749   -4.0084 N   0  0  0  0  0  0  0  0  0  0  0  0
   -3.4656    8.4359   -3.0030 N   0  0  0  0  0  0  0  0  0  0  0  0
   -4.7875    8.0455   -3.2321 C   0  0  0  0  0  0  0  0  0  0  0  0
   -5.3776    8.3337   -4.6301 C   0  0  1  0  0  0  0  0  0  0  0  0
   -6.4459    7.3827   -4.9131 N   0  0  0  0  0  0  0  0  0  0  0  0
   -6.1383    6.1280   -5.4044 C   0  0  0  0  0  0  0  0  0  0  0  0
   -7.3348    5.1494   -5.4410 C   0  0  2  0  0  0  0  0  0  0  0  0
   -6.8974    3.6969   -5.1183 C   0  0  0  0  0  0  0  0  0  0  0  0
   -8.0574    2.7084   -5.2964 C   0  0  0  0  0  0  0  0  0  0  0  0
   -6.3770    3.5983   -3.6768 C   0  0  0  0  0  0  0  0  0  0  0  0
   -8.0109    5.3036   -6.7546 N   0  0  0  0  0  0  0  0  0  0  0  0
   -9.0462    6.2473   -6.8178 C   0  0  0  0  0  0  0  0  0  0  0  0
   -9.8200    6.4151   -8.1480 C   0  0  0  0  0  0  0  0  0  0  0  0
  -10.7219    7.6598   -8.0891 C   0  0  0  0  0  0  0  0  0  0  0  0
  -11.5995    7.7686   -9.3303 C   0  0  0  0  0  0  0  0  0  0  0  0
  -12.3331    6.5256   -9.5449 N   0  0  0  0  0  0  0  0  0  0  0  0
  -13.7146    6.4128   -9.6281 C   0  0  0  0  0  0  0  0  0  0  0  0
  -14.5262    7.5936   -9.4352 C   0  0  0  0  0  0  0  0  0  0  0  0
  -15.2585    8.5294   -9.2486 C   0  0  0  0  0  0  0  0  0  0  0  0
  -16.2117    9.6365   -8.9995 C   0  0  0  0  0  0  0  0  0  0  0  0
  -17.1349    9.3432   -7.8680 N   0  0  0  0  0  0  0  0  0  0  0  0
  -16.4768    9.2315   -6.5636 C   0  0  0  0  0  0  0  0  0  0  0  0
  -17.9893    8.1683   -8.0802 C   0  0  0  0  0  0  0  0  0  0  0  0
  -15.4047   10.9253   -8.7241 C   0  0  0  0  0  0  0  0  0  0  0  0
  -17.0182    9.8937  -10.2943 C   0  0  0  0  0  0  0  0  0  0  0  0
  -14.2980    5.3561   -9.8379 O   0  0  0  0  0  0  0  0  0  0  0  0
  -11.5112    5.3306   -9.6643 C   0  0  0  0  0  0  0  0  0  0  0  0
  -10.6583    5.1560   -8.4152 C   0  0  0  0  0  0  0  0  0  0  0  0
   -9.3854    6.8813   -5.8117 O   0  0  0  0  0  0  0  0  0  0  0  0
   -7.2404    4.9526   -7.9482 C   0  0  0  0  0  0  0  0  0  0  0  0
   -5.0331    5.8585   -5.8725 O   0  0  0  0  0  0  0  0  0  0  0  0
   -5.9226    9.7684   -4.6253 C   0  0  0  0  0  0  0  0  0  0  0  0
   -5.5169   10.5822   -5.8549 C   0  0  1  0  0  0  0  0  0  0  0  0
   -5.9924    9.9560   -7.1885 C   0  0  0  0  0  0  0  0  0  0  0  0
   -5.7999   10.9082   -8.3016 N   0  0  0  0  0  0  0  0  0  0  0  0
   -6.3498   12.2580   -8.0386 C   0  0  0  0  0  0  0  0  0  0  0  0
   -6.9182   12.3809   -6.6166 C   0  0  0  0  0  0  0  0  0  0  0  0
   -5.9840   11.9334   -5.6278 O   0  0  0  0  0  0  0  0  0  0  0  0
   -5.5161    7.6088   -2.3320 O   0  0  0  0  0  0  0  0  0  0  0  0
   -2.9332    8.5450   -1.6452 C   0  0  0  0  0  0  0  0  0  0  0  0
   -2.3684    9.9561   -1.4529 C   0  0  0  0  0  0  0  0  0  0  0  0
   -1.4072   10.3362   -2.5894 C   0  0  0  0  0  0  0  0  0  0  0  0
   -0.1429    9.3737   -5.4057 O   0  0  0  0  0  0  0  0  0  0  0  0
   -2.1858   11.6479   -9.0730 C   0  0  0  0  0  0  0  0  0  0  0  0
   -2.0059   10.7337  -10.1069 C   0  0  0  0  0  0  0  0  0  0  0  0
   -3.0087    9.8270  -10.4815 C   0  0  0  0  0  0  0  0  0  0  0  0
   -4.2483    9.9096   -9.8405 C   0  0  0  0  0  0  0  0  0  0  0  0
   -4.5014   10.8507   -8.8412 C   0  0  0  0  0  0  0  0  0  0  0  0
   -3.4460   11.6835   -8.4259 C   0  0  0  0  0  0  0  0  0  0  0  0
   -8.9684    6.6000   -9.2060 F   0  0  0  0  0  0  0  0  0  0  0  0
    0.6614   15.7101  -13.3366 H   0  0  0  0  0  0  0  0  0  0  0  0
    0.1685   14.0711  -13.8293 H   0  0  0  0  0  0  0  0  0  0  0  0
   -1.0418   15.3207  -13.4985 H   0  0  0  0  0  0  0  0  0  0  0  0
   -0.9904   13.8177  -11.5980 H   0  0  0  0  0  0  0  0  0  0  0  0
   -2.2804   15.2598  -10.3720 H   0  0  0  0  0  0  0  0  0  0  0  0
   -1.6887   16.9061  -10.0708 H   0  0  0  0  0  0  0  0  0  0  0  0
   -2.0226   16.3976  -11.7364 H   0  0  0  0  0  0  0  0  0  0  0  0
    4.3694   14.0592  -11.8808 H   0  0  0  0  0  0  0  0  0  0  0  0
    4.4687   11.9989  -10.4713 H   0  0  0  0  0  0  0  0  0  0  0  0
    2.3422   11.0762   -9.5728 H   0  0  0  0  0  0  0  0  0  0  0  0
   -1.0190   10.0293  -12.4602 H   0  0  0  0  0  0  0  0  0  0  0  0
    0.5244   10.8342  -12.2797 H   0  0  0  0  0  0  0  0  0  0  0  0
    1.2561    9.0520  -10.6276 H   0  0  0  0  0  0  0  0  0  0  0  0
   -0.2905    8.2306  -10.8577 H   0  0  0  0  0  0  0  0  0  0  0  0
    0.8425    8.3747  -12.2115 H   0  0  0  0  0  0  0  0  0  0  0  0
   -0.4984   14.4438   -8.4845 H   0  0  0  0  0  0  0  0  0  0  0  0
   -1.7585   13.7660   -7.5137 H   0  0  0  0  0  0  0  0  0  0  0  0
    0.4722   14.1587   -4.7476 H   0  0  0  0  0  0  0  0  0  0  0  0
   -0.1323   15.3207   -5.9399 H   0  0  0  0  0  0  0  0  0  0  0  0
   -1.2126   14.0869   -5.2798 H   0  0  0  0  0  0  0  0  0  0  0  0
    2.3063   13.8099   -6.2986 H   0  0  0  0  0  0  0  0  0  0  0  0
    2.1114   12.9628   -7.8154 H   0  0  0  0  0  0  0  0  0  0  0  0
    1.6745   14.6797   -7.7004 H   0  0  0  0  0  0  0  0  0  0  0  0
    0.3947   11.1514   -7.0600 H   0  0  0  0  0  0  0  0  0  0  0  0
    1.1359   11.7523   -5.5709 H   0  0  0  0  0  0  0  0  0  0  0  0
   -2.8381   10.7477   -4.1909 H   0  0  0  0  0  0  0  0  0  0  0  0
   -2.7438    8.3407   -4.9410 H   0  0  0  0  0  0  0  0  0  0  0  0
   -4.6124    8.2022   -5.3950 H   0  0  0  0  0  0  0  0  0  0  0  0
   -7.2816    7.4436   -4.3358 H   0  0  0  0  0  0  0  0  0  0  0  0
   -8.0358    5.4440   -4.6500 H   0  0  0  0  0  0  0  0  0  0  0  0
   -6.0781    3.3869   -5.7790 H   0  0  0  0  0  0  0  0  0  0  0  0
   -8.9167    2.9909   -4.6803 H   0  0  0  0  0  0  0  0  0  0  0  0
   -8.3857    2.6624   -6.3383 H   0  0  0  0  0  0  0  0  0  0  0  0
   -7.7508    1.6984   -5.0071 H   0  0  0  0  0  0  0  0  0  0  0  0
   -7.1482    3.8891   -2.9549 H   0  0  0  0  0  0  0  0  0  0  0  0
   -6.0697    2.5727   -3.4449 H   0  0  0  0  0  0  0  0  0  0  0  0
   -5.5080    4.2441   -3.5199 H   0  0  0  0  0  0  0  0  0  0  0  0
  -11.3654    7.6208   -7.2014 H   0  0  0  0  0  0  0  0  0  0  0  0
  -10.1055    8.5625   -8.0075 H   0  0  0  0  0  0  0  0  0  0  0  0
  -12.2715    8.6235   -9.2313 H   0  0  0  0  0  0  0  0  0  0  0  0
  -10.9863    7.9424  -10.2215 H   0  0  0  0  0  0  0  0  0  0  0  0
  -17.2186    9.0516   -5.7751 H   0  0  0  0  0  0  0  0  0  0  0  0
  -15.7466    8.4148   -6.5266 H   0  0  0  0  0  0  0  0  0  0  0  0
  -15.9788   10.1637   -6.2777 H   0  0  0  0  0  0  0  0  0  0  0  0
  -18.6784    8.0403   -7.2361 H   0  0  0  0  0  0  0  0  0  0  0  0
  -18.6307    8.2842   -8.9579 H   0  0  0  0  0  0  0  0  0  0  0  0
  -17.4154    7.2408   -8.1821 H   0  0  0  0  0  0  0  0  0  0  0  0
  -14.6644   10.7930   -7.9255 H   0  0  0  0  0  0  0  0  0  0  0  0
  -14.8385   11.2386   -9.6117 H   0  0  0  0  0  0  0  0  0  0  0  0
  -16.0652   11.7557   -8.4462 H   0  0  0  0  0  0  0  0  0  0  0  0
  -17.7938   10.6522  -10.1356 H   0  0  0  0  0  0  0  0  0  0  0  0
  -16.3680   10.2540  -11.1024 H   0  0  0  0  0  0  0  0  0  0  0  0
  -17.4984    8.9855  -10.6779 H   0  0  0  0  0  0  0  0  0  0  0  0
  -12.1250    4.4377   -9.8175 H   0  0  0  0  0  0  0  0  0  0  0  0
  -10.8802    5.4477  -10.5531 H   0  0  0  0  0  0  0  0  0  0  0  0
  -10.0253    4.2726   -8.5461 H   0  0  0  0  0  0  0  0  0  0  0  0
  -11.3058    4.9558   -7.5523 H   0  0  0  0  0  0  0  0  0  0  0  0
   -6.5928    4.0934   -7.7601 H   0  0  0  0  0  0  0  0  0  0  0  0
   -7.8949    4.6819   -8.7772 H   0  0  0  0  0  0  0  0  0  0  0  0
   -6.6345    5.8140   -8.2466 H   0  0  0  0  0  0  0  0  0  0  0  0
   -7.0186    9.7764   -4.5338 H   0  0  0  0  0  0  0  0  0  0  0  0
   -5.5695   10.3172   -3.7402 H   0  0  0  0  0  0  0  0  0  0  0  0
   -4.4248   10.6531   -5.8738 H   0  0  0  0  0  0  0  0  0  0  0  0
   -5.4908    9.0013   -7.3860 H   0  0  0  0  0  0  0  0  0  0  0  0
   -7.0646    9.7240   -7.1307 H   0  0  0  0  0  0  0  0  0  0  0  0
   -5.6100   13.0504   -8.1925 H   0  0  0  0  0  0  0  0  0  0  0  0
   -7.1530   12.4474   -8.7603 H   0  0  0  0  0  0  0  0  0  0  0  0
   -7.1527   13.4288   -6.4040 H   0  0  0  0  0  0  0  0  0  0  0  0
   -7.8512   11.8150   -6.5079 H   0  0  0  0  0  0  0  0  0  0  0  0
   -3.7105    8.3486   -0.8988 H   0  0  0  0  0  0  0  0  0  0  0  0
   -2.1483    7.7881   -1.5255 H   0  0  0  0  0  0  0  0  0  0  0  0
   -3.1972   10.6754   -1.4405 H   0  0  0  0  0  0  0  0  0  0  0  0
   -1.8582   10.0311   -0.4868 H   0  0  0  0  0  0  0  0  0  0  0  0
   -0.4742    9.7691   -2.4671 H   0  0  0  0  0  0  0  0  0  0  0  0
   -1.1366   11.3954   -2.5028 H   0  0  0  0  0  0  0  0  0  0  0  0
   -2.8580    9.1004  -11.2722 H   0  0  0  0  0  0  0  0  0  0  0  0
   -5.0471    9.2414  -10.1556 H   0  0  0  0  0  0  0  0  0  0  0  0
   -3.5953   12.3880   -7.6149 H   0  0  0  0  0  0  0  0  0  0  0  0
  1  2  1  0
  2  3  1  0
  2  5  1  0
  3  4  1  0
  5  6  2  0
  5 10  1  0
  6  7  1  0
  7  8  2  0
  8  9  1  0
  9 10  2  0
 10 11  1  0
 11 12  1  0
 11 15  2  0
 12 13  1  0
 12 68  1  0
 13 14  1  0
 15 16  1  0
 15 67  1  0
 16 17  1  0
 17 18  1  0
 17 19  1  0
 17 20  1  0
 20 21  1  0
 21 22  1  0
 22 23  1  0
 22 66  2  0
 23 24  1  0
 23 65  1  0
 24 25  1  0
 25 26  1  0
 25 63  1  0
 26 27  1  0
 26 62  2  0
 27 28  1  0
 27 55  1  0
 28 29  1  0
 29 30  1  0
 29 54  2  0
 30 31  1  0
 30 34  1  0
 31 32  1  0
 31 33  1  0
 34 35  1  0
 34 53  1  0
 35 36  1  0
 35 52  2  0
 36 37  1  0
 36 51  1  0
 36 73  1  0
 37 38  1  0
 38 39  1  0
 39 40  1  0
 39 50  1  0
 40 41  1  0
 40 49  2  0
 42 43  1  0
 43 44  1  0
 43 47  1  0
 43 48  1  0
 44 45  1  0
 44 46  1  0
 50 51  1  0
 55 56  1  0
 56 57  1  0
 56 61  1  0
 57 58  1  0
 58 59  1  0
 58 71  1  0
 59 60  1  0
 60 61  1  0
 63 64  1  0
 64 65  1  0
 67 68  2  0
 67 72  1  0
 68 69  1  0
 69 70  2  0
 70 71  1  0
 71 72  2  0
 41 42  3  0
  1 74  1  0
  1 75  1  0
  1 76  1  0
  2 77  1  6
  4 78  1  0
  4 79  1  0
  4 80  1  0
  7 81  1  0
  8 82  1  0
  9 83  1  0
 13 84  1  0
 13 85  1  0
 14 86  1  0
 14 87  1  0
 14 88  1  0
 16 89  1  0
 16 90  1  0
 18 91  1  0
 18 92  1  0
 18 93  1  0
 19 94  1  0
 19 95  1  0
 19 96  1  0
 20 97  1  0
 20 98  1  0
 23 99  1  6
 24100  1  0
 27101  1  6
 28102  1  0
 30103  1  1
 31104  1  0
 32105  1  0
 32106  1  0
 32107  1  0
 33108  1  0
 33109  1  0
 33110  1  0
 37111  1  0
 37112  1  0
 38113  1  0
 38114  1  0
 45115  1  0
 45116  1  0
 45117  1  0
 46118  1  0
 46119  1  0
 46120  1  0
 47121  1  0
 47122  1  0
 47123  1  0
 48124  1  0
 48125  1  0
 48126  1  0
 50127  1  0
 50128  1  0
 51129  1  0
 51130  1  0
 53131  1  0
 53132  1  0
 53133  1  0
 55134  1  0
 55135  1  0
 56136  1  6
 57137  1  0
 57138  1  0
 59139  1  0
 59140  1  0
 60141  1  0
 60142  1  0
 63143  1  0
 63144  1  0
 64145  1  0
 64146  1  0
 65147  1  0
 65148  1  0
 69149  1  0
 70150  1  0
 72151  1  0
M  END
$$$$
