 energy: -221.282560851585 gnorm: 0.000611784899 xtb: 6.7.1 (edcfbbe)
          08232519203D

151157  0     0  0            999 V2000
   -0.1195    1.3956   -9.4359 C   0  0  0  0  0  0  0  0  0  0  0  0
   -0.3262    1.3239   -7.9223 C   0  0  0  0  0  0  0  0  0  0  0  0
   -1.6982    1.4026   -7.5568 O   0  0  0  0  0  0  0  0  0  0  0  0
   -2.4367    0.2335   -7.7928 C   0  0  0  0  0  0  0  0  0  0  0  0
    0.3451    2.4999   -7.2340 C   0  0  0  0  0  0  0  0  0  0  0  0
    0.2451    3.6618   -7.8575 N   0  0  0  0  0  0  0  0  0  0  0  0
    0.7199    4.7506   -7.2837 C   0  0  0  0  0  0  0  0  0  0  0  0
    1.3265    4.7464   -6.0375 C   0  0  0  0  0  0  0  0  0  0  0  0
    1.4595    3.5329   -5.3878 C   0  0  0  0  0  0  0  0  0  0  0  0
    0.9714    2.3729   -5.9850 C   0  0  0  0  0  0  0  0  0  0  0  0
    1.1124    1.0839   -5.3032 C   0  0  0  0  0  0  0  0  0  0  0  0
    1.9097    0.0836   -5.8213 N   0  0  0  0  0  0  0  0  0  0  0  0
    2.8263    0.2372   -6.9234 C   0  0  0  0  0  0  0  0  0  0  0  0
    4.0252    1.1115   -6.5640 C   0  0  0  0  0  0  0  0  0  0  0  0
    0.4928    0.6562   -4.1520 C   0  0  0  0  0  0  0  0  0  0  0  0
   -0.3529    1.4061   -3.1695 C   0  0  0  0  0  0  0  0  0  0  0  0
   -1.8714    1.5251   -3.4463 C   0  0  0  0  0  0  0  0  0  0  0  0
   -2.1348    2.5694   -4.5327 C   0  0  0  0  0  0  0  0  0  0  0  0
   -2.5452    1.9834   -2.1479 C   0  0  0  0  0  0  0  0  0  0  0  0
   -2.4671    0.1780   -3.9186 C   0  0  0  0  0  0  0  0  0  0  0  0
   -3.1303   -0.5784   -2.8970 O   0  0  0  0  0  0  0  0  0  0  0  0
   -4.4520   -0.4637   -2.8240 C   0  0  0  0  0  0  0  0  0  0  0  0
   -5.0298   -1.4089   -1.7735 C   0  0  0  0  0  0  0  0  0  0  0  0
   -4.4841   -1.1484   -0.4460 N   0  0  0  0  0  0  0  0  0  0  0  0
   -4.8877   -2.1607    0.4347 N   0  0  0  0  0  0  0  0  0  0  0  0
   -4.2442   -3.3266    0.6672 C   0  0  0  0  0  0  0  0  0  0  0  0
   -2.8210   -3.4334    0.0880 C   0  0  0  0  0  0  0  0  0  0  0  0
   -1.8937   -3.0315    1.1265 N   0  0  0  0  0  0  0  0  0  0  0  0
   -1.4078   -1.7869    1.2076 C   0  0  0  0  0  0  0  0  0  0  0  0
   -0.5041   -1.5407    2.4158 C   0  0  0  0  0  0  0  0  0  0  0  0
   -1.3233   -1.1620    3.6686 C   0  0  0  0  0  0  0  0  0  0  0  0
   -1.6671   -2.4227    4.4636 C   0  0  0  0  0  0  0  0  0  0  0  0
   -2.6150   -0.4094    3.3448 C   0  0  0  0  0  0  0  0  0  0  0  0
    0.5361   -0.5831    2.0332 N   0  0  0  0  0  0  0  0  0  0  0  0
    1.5954   -1.1453    1.4203 C   0  0  0  0  0  0  0  0  0  0  0  0
    2.7116   -0.2769    0.8104 C   0  0  0  0  0  0  0  0  0  0  0  0
    2.2435    0.3090   -0.5259 C   0  0  0  0  0  0  0  0  0  0  0  0
    3.3921    1.0249   -1.2420 C   0  0  0  0  0  0  0  0  0  0  0  0
    4.4993    0.1149   -1.4042 N   0  0  0  0  0  0  0  0  0  0  0  0
    4.7383   -0.4363   -2.6187 C   0  0  0  0  0  0  0  0  0  0  0  0
    5.6044   -1.5881   -2.6185 C   0  0  0  0  0  0  0  0  0  0  0  0
    6.2177   -2.6094   -2.7893 C   0  0  0  0  0  0  0  0  0  0  0  0
    6.9077   -3.8935   -2.8790 C   0  0  0  0  0  0  0  0  0  0  0  0
    8.1345   -3.7124   -3.6593 N   0  0  0  0  0  0  0  0  0  0  0  0
    8.9004   -4.9156   -3.8952 C   0  0  0  0  0  0  0  0  0  0  0  0
    8.9912   -2.6466   -3.1856 C   0  0  0  0  0  0  0  0  0  0  0  0
    5.9423   -4.8301   -3.6270 C   0  0  0  0  0  0  0  0  0  0  0  0
    7.1297   -4.4141   -1.4424 C   0  0  0  0  0  0  0  0  0  0  0  0
    4.2609    0.0026   -3.6499 O   0  0  0  0  0  0  0  0  0  0  0  0
    5.0319   -0.3811   -0.1614 C   0  0  0  0  0  0  0  0  0  0  0  0
    3.9582   -1.1449    0.6106 C   0  0  0  0  0  0  0  0  0  0  0  0
    1.6972   -2.3601    1.3083 O   0  0  0  0  0  0  0  0  0  0  0  0
    0.2052    0.8240    2.0445 C   0  0  0  0  0  0  0  0  0  0  0  0
   -1.6697   -0.9174    0.3885 O   0  0  0  0  0  0  0  0  0  0  0  0
   -2.5308   -4.8529   -0.3949 C   0  0  0  0  0  0  0  0  0  0  0  0
   -1.1291   -5.0272   -1.0003 C   0  0  0  0  0  0  0  0  0  0  0  0
   -0.6250   -3.7579   -1.6891 C   0  0  0  0  0  0  0  0  0  0  0  0
    0.6767   -3.9912   -2.2829 N   0  0  0  0  0  0  0  0  0  0  0  0
    1.6103   -4.4071   -1.2454 C   0  0  0  0  0  0  0  0  0  0  0  0
    1.0542   -5.6388   -0.5282 C   0  0  0  0  0  0  0  0  0  0  0  0
   -0.2224   -5.4004    0.0210 O   0  0  0  0  0  0  0  0  0  0  0  0
   -4.7092   -4.1977    1.3800 O   0  0  0  0  0  0  0  0  0  0  0  0
   -6.3074   -2.0398    0.7126 C   0  0  0  0  0  0  0  0  0  0  0  0
   -7.0806   -2.2264   -0.5958 C   0  0  0  0  0  0  0  0  0  0  0  0
   -6.5501   -1.2642   -1.6586 C   0  0  0  0  0  0  0  0  0  0  0  0
   -5.1270    0.2315   -3.5357 O   0  0  0  0  0  0  0  0  0  0  0  0
    0.9155   -0.6932   -3.9637 C   0  0  0  0  0  0  0  0  0  0  0  0
    1.8290   -1.0030   -4.9950 C   0  0  0  0  0  0  0  0  0  0  0  0
    2.4414   -2.2521   -5.0360 C   0  0  0  0  0  0  0  0  0  0  0  0
    2.0786   -3.1891   -4.0948 C   0  0  0  0  0  0  0  0  0  0  0  0
    1.1144   -2.9204   -3.1072 C   0  0  0  0  0  0  0  0  0  0  0  0
    0.5580   -1.6574   -3.0238 C   0  0  0  0  0  0  0  0  0  0  0  0
    3.0650    0.7635    1.6731 F   0  0  0  0  0  0  0  0  0  0  0  0
    0.9433    1.4148   -9.6633 H   0  0  0  0  0  0  0  0  0  0  0  0
   -0.5661    0.5359   -9.9290 H   0  0  0  0  0  0  0  0  0  0  0  0
   -0.5740    2.3084   -9.8084 H   0  0  0  0  0  0  0  0  0  0  0  0
    0.0756    0.3758   -7.5311 H   0  0  0  0  0  0  0  0  0  0  0  0
   -1.9709   -0.6339   -7.3062 H   0  0  0  0  0  0  0  0  0  0  0  0
   -3.4212    0.4058   -7.3613 H   0  0  0  0  0  0  0  0  0  0  0  0
   -2.5483    0.0236   -8.8617 H   0  0  0  0  0  0  0  0  0  0  0  0
    0.6056    5.6636   -7.8531 H   0  0  0  0  0  0  0  0  0  0  0  0
    1.6936    5.6603   -5.5963 H   0  0  0  0  0  0  0  0  0  0  0  0
    1.9507    3.4675   -4.4273 H   0  0  0  0  0  0  0  0  0  0  0  0
    3.1691   -0.7607   -7.2029 H   0  0  0  0  0  0  0  0  0  0  0  0
    2.2994    0.6724   -7.7788 H   0  0  0  0  0  0  0  0  0  0  0  0
    4.4732    0.7498   -5.6438 H   0  0  0  0  0  0  0  0  0  0  0  0
    4.7615    1.0772   -7.3628 H   0  0  0  0  0  0  0  0  0  0  0  0
    3.7142    2.1437   -6.4208 H   0  0  0  0  0  0  0  0  0  0  0  0
   -0.2365    0.9011   -2.2083 H   0  0  0  0  0  0  0  0  0  0  0  0
    0.0356    2.4217   -3.0612 H   0  0  0  0  0  0  0  0  0  0  0  0
   -1.6614    3.5145   -4.2747 H   0  0  0  0  0  0  0  0  0  0  0  0
   -1.7512    2.2428   -5.4941 H   0  0  0  0  0  0  0  0  0  0  0  0
   -3.2043    2.7405   -4.6341 H   0  0  0  0  0  0  0  0  0  0  0  0
   -2.3791    1.2658   -1.3466 H   0  0  0  0  0  0  0  0  0  0  0  0
   -2.1374    2.9448   -1.8429 H   0  0  0  0  0  0  0  0  0  0  0  0
   -3.6168    2.0991   -2.2932 H   0  0  0  0  0  0  0  0  0  0  0  0
   -3.1951    0.3652   -4.7124 H   0  0  0  0  0  0  0  0  0  0  0  0
   -1.6774   -0.4744   -4.2953 H   0  0  0  0  0  0  0  0  0  0  0  0
   -4.7823   -2.4332   -2.1172 H   0  0  0  0  0  0  0  0  0  0  0  0
   -3.4778   -0.9876   -0.4202 H   0  0  0  0  0  0  0  0  0  0  0  0
   -2.7078   -2.7365   -0.7451 H   0  0  0  0  0  0  0  0  0  0  0  0
   -1.5737   -3.7578    1.7479 H   0  0  0  0  0  0  0  0  0  0  0  0
    0.0366   -2.4703    2.6258 H   0  0  0  0  0  0  0  0  0  0  0  0
   -0.6847   -0.5365    4.3009 H   0  0  0  0  0  0  0  0  0  0  0  0
   -2.1759   -2.1481    5.3847 H   0  0  0  0  0  0  0  0  0  0  0  0
   -2.3324   -3.0694    3.8958 H   0  0  0  0  0  0  0  0  0  0  0  0
   -0.7701   -2.9801    4.7240 H   0  0  0  0  0  0  0  0  0  0  0  0
   -3.0640   -0.0386    4.2635 H   0  0  0  0  0  0  0  0  0  0  0  0
   -2.4442    0.4323    2.6812 H   0  0  0  0  0  0  0  0  0  0  0  0
   -3.3305   -1.0746    2.8650 H   0  0  0  0  0  0  0  0  0  0  0  0
    1.8897   -0.5138   -1.1514 H   0  0  0  0  0  0  0  0  0  0  0  0
    1.4207    1.0054   -0.3698 H   0  0  0  0  0  0  0  0  0  0  0  0
    3.0696    1.3460   -2.2342 H   0  0  0  0  0  0  0  0  0  0  0  0
    3.7189    1.8926   -0.6593 H   0  0  0  0  0  0  0  0  0  0  0  0
    9.3996   -5.3008   -2.9924 H   0  0  0  0  0  0  0  0  0  0  0  0
    8.2661   -5.6944   -4.3091 H   0  0  0  0  0  0  0  0  0  0  0  0
    9.6714   -4.6830   -4.6303 H   0  0  0  0  0  0  0  0  0  0  0  0
    9.5295   -2.8979   -2.2580 H   0  0  0  0  0  0  0  0  0  0  0  0
    9.7312   -2.4342   -3.9575 H   0  0  0  0  0  0  0  0  0  0  0  0
    8.3991   -1.7491   -3.0186 H   0  0  0  0  0  0  0  0  0  0  0  0
    4.9381   -4.7094   -3.2273 H   0  0  0  0  0  0  0  0  0  0  0  0
    5.9300   -4.5710   -4.6822 H   0  0  0  0  0  0  0  0  0  0  0  0
    6.2343   -5.8706   -3.5114 H   0  0  0  0  0  0  0  0  0  0  0  0
    7.7774   -3.7410   -0.8849 H   0  0  0  0  0  0  0  0  0  0  0  0
    6.1756   -4.4802   -0.9253 H   0  0  0  0  0  0  0  0  0  0  0  0
    7.5817   -5.4028   -1.4655 H   0  0  0  0  0  0  0  0  0  0  0  0
    5.8841   -1.0316   -0.3646 H   0  0  0  0  0  0  0  0  0  0  0  0
    5.3709    0.4758    0.4327 H   0  0  0  0  0  0  0  0  0  0  0  0
    4.3375   -1.4493    1.5869 H   0  0  0  0  0  0  0  0  0  0  0  0
    3.6681   -2.0394    0.0601 H   0  0  0  0  0  0  0  0  0  0  0  0
   -0.1731    1.1013    3.0273 H   0  0  0  0  0  0  0  0  0  0  0  0
    1.0775    1.4338    1.8454 H   0  0  0  0  0  0  0  0  0  0  0  0
   -0.5644    1.0273    1.2958 H   0  0  0  0  0  0  0  0  0  0  0  0
   -2.6376   -5.5458    0.4413 H   0  0  0  0  0  0  0  0  0  0  0  0
   -3.2790   -5.1137   -1.1449 H   0  0  0  0  0  0  0  0  0  0  0  0
   -1.1606   -5.8408   -1.7462 H   0  0  0  0  0  0  0  0  0  0  0  0
   -1.3173   -3.4627   -2.4808 H   0  0  0  0  0  0  0  0  0  0  0  0
   -0.5552   -2.9671   -0.9305 H   0  0  0  0  0  0  0  0  0  0  0  0
    2.5730   -4.6460   -1.7005 H   0  0  0  0  0  0  0  0  0  0  0  0
    1.7508   -3.6116   -0.4965 H   0  0  0  0  0  0  0  0  0  0  0  0
    0.9956   -6.4808   -1.2358 H   0  0  0  0  0  0  0  0  0  0  0  0
    1.6980   -5.9083    0.3102 H   0  0  0  0  0  0  0  0  0  0  0  0
   -6.5750   -2.8008    1.4456 H   0  0  0  0  0  0  0  0  0  0  0  0
   -6.4828   -1.0426    1.1214 H   0  0  0  0  0  0  0  0  0  0  0  0
   -6.9532   -3.2573   -0.9351 H   0  0  0  0  0  0  0  0  0  0  0  0
   -8.1426   -2.0527   -0.4248 H   0  0  0  0  0  0  0  0  0  0  0  0
   -6.7692   -0.2349   -1.3734 H   0  0  0  0  0  0  0  0  0  0  0  0
   -7.0155   -1.4563   -2.6248 H   0  0  0  0  0  0  0  0  0  0  0  0
    3.1780   -2.4969   -5.7858 H   0  0  0  0  0  0  0  0  0  0  0  0
    2.5157   -4.1759   -4.1270 H   0  0  0  0  0  0  0  0  0  0  0  0
   -0.1699   -1.4014   -2.2706 H   0  0  0  0  0  0  0  0  0  0  0  0
  1  2  1  0  0  0  0
  2  3  1  0  0  0  0
  2  5  1  0  0  0  0
  3  4  1  0  0  0  0
  5  6  2  0  0  0  0
  5 10  1  0  0  0  0
  6  7  1  0  0  0  0
  7  8  2  0  0  0  0
  8  9  1  0  0  0  0
  9 10  2  0  0  0  0
 10 11  1  0  0  0  0
 11 12  1  0  0  0  0
 11 15  2  0  0  0  0
 12 13  1  0  0  0  0
 12 68  1  0  0  0  0
 13 14  1  0  0  0  0
 15 16  1  0  0  0  0
 15 67  1  0  0  0  0
 16 17  1  0  0  0  0
 17 18  1  0  0  0  0
 17 19  1  0  0  0  0
 17 20  1  0  0  0  0
 20 21  1  0  0  0  0
 21 22  1  0  0  0  0
 22 23  1  0  0  0  0
 22 66  2  0  0  0  0
 23 24  1  0  0  0  0
 23 65  1  0  0  0  0
 24 25  1  0  0  0  0
 25 26  1  0  0  0  0
 25 63  1  0  0  0  0
 26 27  1  0  0  0  0
 26 62  2  0  0  0  0
 27 28  1  0  0  0  0
 27 55  1  0  0  0  0
 28 29  1  0  0  0  0
 29 30  1  0  0  0  0
 29 54  2  0  0  0  0
 30 31  1  0  0  0  0
 30 34  1  0  0  0  0
 31 32  1  0  0  0  0
 31 33  1  0  0  0  0
 34 35  1  0  0  0  0
 34 53  1  0  0  0  0
 35 36  1  0  0  0  0
 35 52  2  0  0  0  0
 36 37  1  0  0  0  0
 36 51  1  0  0  0  0
 36 73  1  0  0  0  0
 37 38  1  0  0  0  0
 38 39  1  0  0  0  0
 39 40  1  0  0  0  0
 39 50  1  0  0  0  0
 40 41  1  0  0  0  0
 40 49  2  0  0  0  0
 42 43  1  0  0  0  0
 43 44  1  0  0  0  0
 43 47  1  0  0  0  0
 43 48  1  0  0  0  0
 44 45  1  0  0  0  0
 44 46  1  0  0  0  0
 50 51  1  0  0  0  0
 55 56  1  0  0  0  0
 56 57  1  0  0  0  0
 56 61  1  0  0  0  0
 57 58  1  0  0  0  0
 58 59  1  0  0  0  0
 58 71  1  0  0  0  0
 59 60  1  0  0  0  0
 60 61  1  0  0  0  0
 63 64  1  0  0  0  0
 64 65  1  0  0  0  0
 67 68  2  0  0  0  0
 67 72  1  0  0  0  0
 68 69  1  0  0  0  0
 69 70  2  0  0  0  0
 70 71  1  0  0  0  0
 71 72  2  0  0  0  0
 41 42  3  0  0  0  0
  1 74  1  0  0  0  0
  1 75  1  0  0  0  0
  1 76  1  0  0  0  0
  2 77  1  0  0  0  0
  4 78  1  0  0  0  0
  4 79  1  0  0  0  0
  4 80  1  0  0  0  0
  7 81  1  0  0  0  0
  8 82  1  0  0  0  0
  9 83  1  0  0  0  0
 13 84  1  0  0  0  0
 13 85  1  0  0  0  0
 14 86  1  0  0  0  0
 14 87  1  0  0  0  0
 14 88  1  0  0  0  0
 16 89  1  0  0  0  0
 16 90  1  0  0  0  0
 18 91  1  0  0  0  0
 18 92  1  0  0  0  0
 18 93  1  0  0  0  0
 19 94  1  0  0  0  0
 19 95  1  0  0  0  0
 19 96  1  0  0  0  0
 20 97  1  0  0  0  0
 20 98  1  0  0  0  0
 23 99  1  0  0  0  0
 24100  1  0  0  0  0
 27101  1  0  0  0  0
 28102  1  0  0  0  0
 30103  1  0  0  0  0
 31104  1  0  0  0  0
 32105  1  0  0  0  0
 32106  1  0  0  0  0
 32107  1  0  0  0  0
 33108  1  0  0  0  0
 33109  1  0  0  0  0
 33110  1  0  0  0  0
 37111  1  0  0  0  0
 37112  1  0  0  0  0
 38113  1  0  0  0  0
 38114  1  0  0  0  0
 45115  1  0  0  0  0
 45116  1  0  0  0  0
 45117  1  0  0  0  0
 46118  1  0  0  0  0
 46119  1  0  0  0  0
 46120  1  0  0  0  0
 47121  1  0  0  0  0
 47122  1  0  0  0  0
 47123  1  0  0  0  0
 48124  1  0  0  0  0
 48125  1  0  0  0  0
 48126  1  0  0  0  0
 50127  1  0  0  0  0
 50128  1  0  0  0  0
 51129  1  0  0  0  0
 51130  1  0  0  0  0
 53131  1  0  0  0  0
 53132  1  0  0  0  0
 53133  1  0  0  0  0
 55134  1  0  0  0  0
 55135  1  0  0  0  0
 56136  1  0  0  0  0
 57137  1  0  0  0  0
 57138  1  0  0  0  0
 59139  1  0  0  0  0
 59140  1  0  0  0  0
 60141  1  0  0  0  0
 60142  1  0  0  0  0
 63143  1  0  0  0  0
 63144  1  0  0  0  0
 64145  1  0  0  0  0
 64146  1  0  0  0  0
 65147  1  0  0  0  0
 65148  1  0  0  0  0
 69149  1  0  0  0  0
 70150  1  0  0  0  0
 72151  1  0  0  0  0
M  END
$$$$
