 energy: -221.263983020385 gnorm: 0.000398454270 xtb: 6.7.1 (edcfbbe)
          08182522203D

151157  0     0  0            999 V2000
   -0.7133   15.4157  -11.2801 C   0  0  0  0  0  0  0  0  0  0  0  0
    0.1368   14.3735  -12.0174 C   0  0  0  0  0  0  0  0  0  0  0  0
   -0.6209   13.2700  -12.4796 O   0  0  0  0  0  0  0  0  0  0  0  0
   -1.5551   13.5785  -13.4802 C   0  0  0  0  0  0  0  0  0  0  0  0
    1.2371   13.8380  -11.1273 C   0  0  0  0  0  0  0  0  0  0  0  0
    2.4463   14.2961  -11.4167 N   0  0  0  0  0  0  0  0  0  0  0  0
    3.4886   13.8679  -10.7291 C   0  0  0  0  0  0  0  0  0  0  0  0
    3.3887   12.9278   -9.7169 C   0  0  0  0  0  0  0  0  0  0  0  0
    2.1272   12.4548   -9.3983 C   0  0  0  0  0  0  0  0  0  0  0  0
    1.0125   12.9215  -10.0918 C   0  0  0  0  0  0  0  0  0  0  0  0
   -0.3274   12.4279   -9.7392 C   0  0  0  0  0  0  0  0  0  0  0  0
   -0.8455   11.3288  -10.3769 N   0  0  0  0  0  0  0  0  0  0  0  0
   -0.1642   10.5109  -11.3422 C   0  0  0  0  0  0  0  0  0  0  0  0
    0.5119    9.3105  -10.6802 C   0  0  0  0  0  0  0  0  0  0  0  0
   -1.2244   12.9055   -8.8092 C   0  0  0  0  0  0  0  0  0  0  0  0
   -1.1071   14.0622   -7.8653 C   0  0  0  0  0  0  0  0  0  0  0  0
   -0.1892   13.8855   -6.6172 C   0  0  0  0  0  0  0  0  0  0  0  0
   -0.8612   14.5496   -5.4112 C   0  0  0  0  0  0  0  0  0  0  0  0
    1.1460   14.5959   -6.8711 C   0  0  0  0  0  0  0  0  0  0  0  0
    0.1116   12.4068   -6.2943 C   0  0  0  0  0  0  0  0  0  0  0  0
   -0.7172   11.8791   -5.2538 O   0  0  0  0  0  0  0  0  0  0  0  0
   -1.2513   10.6810   -5.4287 C   0  0  0  0  0  0  0  0  0  0  0  0
   -1.9764   10.2129   -4.1699 C   0  0  0  0  0  0  0  0  0  0  0  0
   -2.2005    8.7804   -4.2968 N   0  0  0  0  0  0  0  0  0  0  0  0
   -2.9681    8.2622   -3.2491 N   0  0  0  0  0  0  0  0  0  0  0  0
   -4.2465    7.8501   -3.2965 C   0  0  0  0  0  0  0  0  0  0  0  0
   -5.0036    8.0975   -4.6047 C   0  0  0  0  0  0  0  0  0  0  0  0
   -6.0996    7.1661   -4.6948 N   0  0  0  0  0  0  0  0  0  0  0  0
   -6.3062    6.4226   -5.7978 C   0  0  0  0  0  0  0  0  0  0  0  0
   -7.5086    5.4788   -5.7001 C   0  0  0  0  0  0  0  0  0  0  0  0
   -7.0885    4.0571   -5.2790 C   0  0  0  0  0  0  0  0  0  0  0  0
   -8.2852    3.1117   -5.3639 C   0  0  0  0  0  0  0  0  0  0  0  0
   -6.5390    4.0786   -3.8537 C   0  0  0  0  0  0  0  0  0  0  0  0
   -8.2440    5.5208   -6.9606 N   0  0  0  0  0  0  0  0  0  0  0  0
   -9.3755    6.2494   -6.9641 C   0  0  0  0  0  0  0  0  0  0  0  0
  -10.2128    6.3612   -8.2519 C   0  0  0  0  0  0  0  0  0  0  0  0
  -11.0346    7.6535   -8.2222 C   0  0  0  0  0  0  0  0  0  0  0  0
  -11.9898    7.7035   -9.4165 C   0  0  0  0  0  0  0  0  0  0  0  0
  -12.8233    6.5292   -9.4407 N   0  0  0  0  0  0  0  0  0  0  0  0
  -14.1634    6.5189   -9.2363 C   0  0  0  0  0  0  0  0  0  0  0  0
  -14.7765    7.8190   -9.1134 C   0  0  0  0  0  0  0  0  0  0  0  0
  -15.4172    8.8349   -9.0246 C   0  0  0  0  0  0  0  0  0  0  0  0
  -16.2165   10.0408   -8.8129 C   0  0  0  0  0  0  0  0  0  0  0  0
  -17.2270    9.8236   -7.7644 N   0  0  0  0  0  0  0  0  0  0  0  0
  -16.6555    9.5321   -6.4619 C   0  0  0  0  0  0  0  0  0  0  0  0
  -18.2118    8.8131   -8.1116 C   0  0  0  0  0  0  0  0  0  0  0  0
  -15.2854   11.1979   -8.4137 C   0  0  0  0  0  0  0  0  0  0  0  0
  -16.9042   10.4115  -10.1372 C   0  0  0  0  0  0  0  0  0  0  0  0
  -14.8232    5.4960   -9.1778 O   0  0  0  0  0  0  0  0  0  0  0  0
  -12.0951    5.2875   -9.5287 C   0  0  0  0  0  0  0  0  0  0  0  0
  -11.1425    5.1441   -8.3400 C   0  0  0  0  0  0  0  0  0  0  0  0
   -9.8267    6.7625   -5.9490 O   0  0  0  0  0  0  0  0  0  0  0  0
   -7.5984    4.9894   -8.1429 C   0  0  0  0  0  0  0  0  0  0  0  0
   -5.6216    6.5294   -6.7962 O   0  0  0  0  0  0  0  0  0  0  0  0
   -5.5118    9.5551   -4.5884 C   0  0  0  0  0  0  0  0  0  0  0  0
   -5.1149   10.3379   -5.8460 C   0  0  0  0  0  0  0  0  0  0  0  0
   -5.9891    9.9975   -7.0654 C   0  0  0  0  0  0  0  0  0  0  0  0
   -5.8562   11.0493   -8.0540 N   0  0  0  0  0  0  0  0  0  0  0  0
   -6.4414   12.2788   -7.5488 C   0  0  0  0  0  0  0  0  0  0  0  0
   -6.2709   12.4139   -6.0192 C   0  0  0  0  0  0  0  0  0  0  0  0
   -5.1179   11.7361   -5.5703 O   0  0  0  0  0  0  0  0  0  0  0  0
   -4.8028    7.3246   -2.3451 O   0  0  0  0  0  0  0  0  0  0  0  0
   -2.2334    8.3364   -2.0011 C   0  0  0  0  0  0  0  0  0  0  0  0
   -1.9055    9.8033   -1.7095 C   0  0  0  0  0  0  0  0  0  0  0  0
   -1.1561   10.4210   -2.8917 C   0  0  0  0  0  0  0  0  0  0  0  0
   -1.1853   10.0242   -6.4351 O   0  0  0  0  0  0  0  0  0  0  0  0
   -2.3778   12.0679   -8.9069 C   0  0  0  0  0  0  0  0  0  0  0  0
   -2.0958   11.0891   -9.8860 C   0  0  0  0  0  0  0  0  0  0  0  0
   -3.0246   10.1059  -10.2090 C   0  0  0  0  0  0  0  0  0  0  0  0
   -4.2412   10.1357   -9.5709 C   0  0  0  0  0  0  0  0  0  0  0  0
   -4.5507   11.1178   -8.6143 C   0  0  0  0  0  0  0  0  0  0  0  0
   -3.6174   12.0752   -8.2686 C   0  0  0  0  0  0  0  0  0  0  0  0
   -9.4234    6.4093   -9.3962 F   0  0  0  0  0  0  0  0  0  0  0  0
   -1.3827   14.9122  -10.5883 H   0  0  0  0  0  0  0  0  0  0  0  0
   -0.0617   16.0924  -10.7338 H   0  0  0  0  0  0  0  0  0  0  0  0
   -1.3022   15.9981  -11.9844 H   0  0  0  0  0  0  0  0  0  0  0  0
    0.6340   14.8620  -12.8724 H   0  0  0  0  0  0  0  0  0  0  0  0
   -2.3936   14.1661  -13.0920 H   0  0  0  0  0  0  0  0  0  0  0  0
   -1.0852   14.1264  -14.3065 H   0  0  0  0  0  0  0  0  0  0  0  0
   -1.9319   12.6251  -13.8469 H   0  0  0  0  0  0  0  0  0  0  0  0
    4.4421   14.2898  -11.0180 H   0  0  0  0  0  0  0  0  0  0  0  0
    4.2652   12.5777   -9.1942 H   0  0  0  0  0  0  0  0  0  0  0  0
    1.9967   11.7241   -8.6123 H   0  0  0  0  0  0  0  0  0  0  0  0
   -0.8984   10.1677  -12.0757 H   0  0  0  0  0  0  0  0  0  0  0  0
    0.5711   11.1276  -11.8631 H   0  0  0  0  0  0  0  0  0  0  0  0
    1.3063    9.6396  -10.0147 H   0  0  0  0  0  0  0  0  0  0  0  0
   -0.2127    8.7472  -10.0968 H   0  0  0  0  0  0  0  0  0  0  0  0
    0.9409    8.6582  -11.4364 H   0  0  0  0  0  0  0  0  0  0  0  0
   -0.7507   14.9435   -8.4029 H   0  0  0  0  0  0  0  0  0  0  0  0
   -2.1170   14.2823   -7.5157 H   0  0  0  0  0  0  0  0  0  0  0  0
   -0.2267   14.4696   -4.5315 H   0  0  0  0  0  0  0  0  0  0  0  0
   -1.0362   15.6028   -5.6187 H   0  0  0  0  0  0  0  0  0  0  0  0
   -1.8125   14.0738   -5.1885 H   0  0  0  0  0  0  0  0  0  0  0  0
    1.7969   14.5154   -6.0027 H   0  0  0  0  0  0  0  0  0  0  0  0
    1.6571   14.1685   -7.7290 H   0  0  0  0  0  0  0  0  0  0  0  0
    0.9759   15.6524   -7.0658 H   0  0  0  0  0  0  0  0  0  0  0  0
   -0.0130   11.7817   -7.1829 H   0  0  0  0  0  0  0  0  0  0  0  0
    1.1405   12.3135   -5.9301 H   0  0  0  0  0  0  0  0  0  0  0  0
   -2.9106   10.7974   -4.1002 H   0  0  0  0  0  0  0  0  0  0  0  0
   -2.5441    8.5231   -5.2148 H   0  0  0  0  0  0  0  0  0  0  0  0
   -4.3827    7.9134   -5.4870 H   0  0  0  0  0  0  0  0  0  0  0  0
   -6.5914    6.9870   -3.8308 H   0  0  0  0  0  0  0  0  0  0  0  0
   -8.2042    5.8671   -4.9486 H   0  0  0  0  0  0  0  0  0  0  0  0
   -6.2945    3.6984   -5.9420 H   0  0  0  0  0  0  0  0  0  0  0  0
   -9.0969    3.4782   -4.7394 H   0  0  0  0  0  0  0  0  0  0  0  0
   -8.6500    3.0260   -6.3838 H   0  0  0  0  0  0  0  0  0  0  0  0
   -8.0033    2.1204   -5.0175 H   0  0  0  0  0  0  0  0  0  0  0  0
   -7.2923    4.4413   -3.1576 H   0  0  0  0  0  0  0  0  0  0  0  0
   -6.2582    3.0719   -3.5531 H   0  0  0  0  0  0  0  0  0  0  0  0
   -5.6585    4.7107   -3.7735 H   0  0  0  0  0  0  0  0  0  0  0  0
  -11.5859    7.6866   -7.2831 H   0  0  0  0  0  0  0  0  0  0  0  0
  -10.3545    8.5059   -8.2562 H   0  0  0  0  0  0  0  0  0  0  0  0
  -12.6192    8.5931   -9.3601 H   0  0  0  0  0  0  0  0  0  0  0  0
  -11.4048    7.7397  -10.3439 H   0  0  0  0  0  0  0  0  0  0  0  0
  -17.4722    9.4025   -5.7532 H   0  0  0  0  0  0  0  0  0  0  0  0
  -16.0433    8.6185   -6.4561 H   0  0  0  0  0  0  0  0  0  0  0  0
  -16.0502   10.3678   -6.1203 H   0  0  0  0  0  0  0  0  0  0  0  0
  -18.8989    8.7052   -7.2737 H   0  0  0  0  0  0  0  0  0  0  0  0
  -18.7899    9.1336   -8.9746 H   0  0  0  0  0  0  0  0  0  0  0  0
  -17.7635    7.8320   -8.3220 H   0  0  0  0  0  0  0  0  0  0  0  0
  -14.6017   10.9073   -7.6207 H   0  0  0  0  0  0  0  0  0  0  0  0
  -14.6904   11.5029   -9.2715 H   0  0  0  0  0  0  0  0  0  0  0  0
  -15.8845   12.0414   -8.0812 H   0  0  0  0  0  0  0  0  0  0  0  0
  -17.6386   11.1913   -9.9531 H   0  0  0  0  0  0  0  0  0  0  0  0
  -16.1650   10.7801  -10.8443 H   0  0  0  0  0  0  0  0  0  0  0  0
  -17.3939    9.5519  -10.5858 H   0  0  0  0  0  0  0  0  0  0  0  0
  -12.8217    4.4726   -9.5377 H   0  0  0  0  0  0  0  0  0  0  0  0
  -11.5206    5.2751  -10.4623 H   0  0  0  0  0  0  0  0  0  0  0  0
  -10.5585    4.2292   -8.4477 H   0  0  0  0  0  0  0  0  0  0  0  0
  -11.7097    5.0875   -7.4098 H   0  0  0  0  0  0  0  0  0  0  0  0
   -8.2986    4.4124   -8.7452 H   0  0  0  0  0  0  0  0  0  0  0  0
   -7.1751    5.7879   -8.7528 H   0  0  0  0  0  0  0  0  0  0  0  0
   -6.7849    4.3411   -7.8356 H   0  0  0  0  0  0  0  0  0  0  0  0
   -6.5991    9.5462   -4.4872 H   0  0  0  0  0  0  0  0  0  0  0  0
   -5.1137   10.0846   -3.7184 H   0  0  0  0  0  0  0  0  0  0  0  0
   -4.0717   10.1170   -6.1090 H   0  0  0  0  0  0  0  0  0  0  0  0
   -5.6742    9.0424   -7.4864 H   0  0  0  0  0  0  0  0  0  0  0  0
   -7.0436    9.9208   -6.7824 H   0  0  0  0  0  0  0  0  0  0  0  0
   -5.9939   13.1230   -8.0732 H   0  0  0  0  0  0  0  0  0  0  0  0
   -7.5130   12.2600   -7.7868 H   0  0  0  0  0  0  0  0  0  0  0  0
   -6.1254   13.4556   -5.7265 H   0  0  0  0  0  0  0  0  0  0  0  0
   -7.1605   12.0305   -5.4999 H   0  0  0  0  0  0  0  0  0  0  0  0
   -2.8573    7.9006   -1.2207 H   0  0  0  0  0  0  0  0  0  0  0  0
   -1.3119    7.7578   -2.1072 H   0  0  0  0  0  0  0  0  0  0  0  0
   -2.8351   10.3508   -1.5388 H   0  0  0  0  0  0  0  0  0  0  0  0
   -1.3006    9.8687   -0.8053 H   0  0  0  0  0  0  0  0  0  0  0  0
   -0.1931    9.9222   -3.0125 H   0  0  0  0  0  0  0  0  0  0  0  0
   -0.9841   11.4841   -2.7290 H   0  0  0  0  0  0  0  0  0  0  0  0
   -2.8091    9.3445  -10.9433 H   0  0  0  0  0  0  0  0  0  0  0  0
   -4.9932    9.3977   -9.8038 H   0  0  0  0  0  0  0  0  0  0  0  0
   -3.8306   12.8077   -7.5048 H   0  0  0  0  0  0  0  0  0  0  0  0
  1  2  1  0  0  0  0
  2  3  1  0  0  0  0
  2  5  1  0  0  0  0
  3  4  1  0  0  0  0
  5  6  2  0  0  0  0
  5 10  1  0  0  0  0
  6  7  1  0  0  0  0
  7  8  2  0  0  0  0
  8  9  1  0  0  0  0
  9 10  2  0  0  0  0
 10 11  1  0  0  0  0
 11 12  1  0  0  0  0
 11 15  2  0  0  0  0
 12 13  1  0  0  0  0
 12 68  1  0  0  0  0
 13 14  1  0  0  0  0
 15 16  1  0  0  0  0
 15 67  1  0  0  0  0
 16 17  1  0  0  0  0
 17 18  1  0  0  0  0
 17 19  1  0  0  0  0
 17 20  1  0  0  0  0
 20 21  1  0  0  0  0
 21 22  1  0  0  0  0
 22 23  1  0  0  0  0
 22 66  2  0  0  0  0
 23 24  1  0  0  0  0
 23 65  1  0  0  0  0
 24 25  1  0  0  0  0
 25 26  1  0  0  0  0
 25 63  1  0  0  0  0
 26 27  1  0  0  0  0
 26 62  2  0  0  0  0
 27 28  1  0  0  0  0
 27 55  1  0  0  0  0
 28 29  1  0  0  0  0
 29 30  1  0  0  0  0
 29 54  2  0  0  0  0
 30 31  1  0  0  0  0
 30 34  1  0  0  0  0
 31 32  1  0  0  0  0
 31 33  1  0  0  0  0
 34 35  1  0  0  0  0
 34 53  1  0  0  0  0
 35 36  1  0  0  0  0
 35 52  2  0  0  0  0
 36 37  1  0  0  0  0
 36 51  1  0  0  0  0
 36 73  1  0  0  0  0
 37 38  1  0  0  0  0
 38 39  1  0  0  0  0
 39 40  1  0  0  0  0
 39 50  1  0  0  0  0
 40 41  1  0  0  0  0
 40 49  2  0  0  0  0
 42 43  1  0  0  0  0
 43 44  1  0  0  0  0
 43 47  1  0  0  0  0
 43 48  1  0  0  0  0
 44 45  1  0  0  0  0
 44 46  1  0  0  0  0
 50 51  1  0  0  0  0
 55 56  1  0  0  0  0
 56 57  1  0  0  0  0
 56 61  1  0  0  0  0
 57 58  1  0  0  0  0
 58 59  1  0  0  0  0
 58 71  1  0  0  0  0
 59 60  1  0  0  0  0
 60 61  1  0  0  0  0
 63 64  1  0  0  0  0
 64 65  1  0  0  0  0
 67 68  2  0  0  0  0
 67 72  1  0  0  0  0
 68 69  1  0  0  0  0
 69 70  2  0  0  0  0
 70 71  1  0  0  0  0
 71 72  2  0  0  0  0
 41 42  3  0  0  0  0
  1 74  1  0  0  0  0
  1 75  1  0  0  0  0
  1 76  1  0  0  0  0
  2 77  1  0  0  0  0
  4 78  1  0  0  0  0
  4 79  1  0  0  0  0
  4 80  1  0  0  0  0
  7 81  1  0  0  0  0
  8 82  1  0  0  0  0
  9 83  1  0  0  0  0
 13 84  1  0  0  0  0
 13 85  1  0  0  0  0
 14 86  1  0  0  0  0
 14 87  1  0  0  0  0
 14 88  1  0  0  0  0
 16 89  1  0  0  0  0
 16 90  1  0  0  0  0
 18 91  1  0  0  0  0
 18 92  1  0  0  0  0
 18 93  1  0  0  0  0
 19 94  1  0  0  0  0
 19 95  1  0  0  0  0
 19 96  1  0  0  0  0
 20 97  1  0  0  0  0
 20 98  1  0  0  0  0
 23 99  1  0  0  0  0
 24100  1  0  0  0  0
 27101  1  0  0  0  0
 28102  1  0  0  0  0
 30103  1  0  0  0  0
 31104  1  0  0  0  0
 32105  1  0  0  0  0
 32106  1  0  0  0  0
 32107  1  0  0  0  0
 33108  1  0  0  0  0
 33109  1  0  0  0  0
 33110  1  0  0  0  0
 37111  1  0  0  0  0
 37112  1  0  0  0  0
 38113  1  0  0  0  0
 38114  1  0  0  0  0
 45115  1  0  0  0  0
 45116  1  0  0  0  0
 45117  1  0  0  0  0
 46118  1  0  0  0  0
 46119  1  0  0  0  0
 46120  1  0  0  0  0
 47121  1  0  0  0  0
 47122  1  0  0  0  0
 47123  1  0  0  0  0
 48124  1  0  0  0  0
 48125  1  0  0  0  0
 48126  1  0  0  0  0
 50127  1  0  0  0  0
 50128  1  0  0  0  0
 51129  1  0  0  0  0
 51130  1  0  0  0  0
 53131  1  0  0  0  0
 53132  1  0  0  0  0
 53133  1  0  0  0  0
 55134  1  0  0  0  0
 55135  1  0  0  0  0
 56136  1  0  0  0  0
 57137  1  0  0  0  0
 57138  1  0  0  0  0
 59139  1  0  0  0  0
 59140  1  0  0  0  0
 60141  1  0  0  0  0
 60142  1  0  0  0  0
 63143  1  0  0  0  0
 63144  1  0  0  0  0
 64145  1  0  0  0  0
 64146  1  0  0  0  0
 65147  1  0  0  0  0
 65148  1  0  0  0  0
 69149  1  0  0  0  0
 70150  1  0  0  0  0
 72151  1  0  0  0  0
M  END
$$$$
