 energy: -221.275634600693 gnorm: 0.000385419823 xtb: 6.7.1 (edcfbbe)
          08232517433D

151157  0     0  0            999 V2000
   -0.5602   -5.7964   -2.5989 C   0  0  0  0  0  0  0  0  0  0  0  0
   -0.5505   -4.4797   -3.3679 C   0  0  0  0  0  0  0  0  0  0  0  0
   -1.7160   -4.4764   -4.1788 O   0  0  0  0  0  0  0  0  0  0  0  0
   -1.9478   -3.2732   -4.8561 C   0  0  0  0  0  0  0  0  0  0  0  0
    0.7058   -4.3619   -4.2148 C   0  0  0  0  0  0  0  0  0  0  0  0
    0.9837   -5.4167   -4.9645 N   0  0  0  0  0  0  0  0  0  0  0  0
    2.0140   -5.3844   -5.7862 C   0  0  0  0  0  0  0  0  0  0  0  0
    2.8381   -4.2777   -5.9199 C   0  0  0  0  0  0  0  0  0  0  0  0
    2.5670   -3.1729   -5.1338 C   0  0  0  0  0  0  0  0  0  0  0  0
    1.4883   -3.1957   -4.2513 C   0  0  0  0  0  0  0  0  0  0  0  0
    1.1986   -2.0403   -3.3952 C   0  0  0  0  0  0  0  0  0  0  0  0
    0.7322   -0.8502   -3.9160 N   0  0  0  0  0  0  0  0  0  0  0  0
    0.5693   -0.5206   -5.3066 C   0  0  0  0  0  0  0  0  0  0  0  0
    1.6676    0.4211   -5.8012 C   0  0  0  0  0  0  0  0  0  0  0  0
    1.2757   -1.9579   -2.0236 C   0  0  0  0  0  0  0  0  0  0  0  0
    1.7762   -2.9799   -1.0549 C   0  0  0  0  0  0  0  0  0  0  0  0
    3.2813   -2.8573   -0.7166 C   0  0  0  0  0  0  0  0  0  0  0  0
    3.6649   -3.9784    0.2516 C   0  0  0  0  0  0  0  0  0  0  0  0
    4.1074   -2.9882   -1.9983 C   0  0  0  0  0  0  0  0  0  0  0  0
    3.6231   -1.4877   -0.0982 C   0  0  0  0  0  0  0  0  0  0  0  0
    3.3455   -1.3796    1.3072 O   0  0  0  0  0  0  0  0  0  0  0  0
    4.4005   -1.4135    2.1178 C   0  0  0  0  0  0  0  0  0  0  0  0
    4.0412   -1.1470    3.5779 C   0  0  0  0  0  0  0  0  0  0  0  0
    2.8472   -1.8626    4.0104 N   0  0  0  0  0  0  0  0  0  0  0  0
    2.5072   -1.4984    5.3220 N   0  0  0  0  0  0  0  0  0  0  0  0
    1.6218   -0.5632    5.7289 C   0  0  0  0  0  0  0  0  0  0  0  0
    0.6695    0.0359    4.6777 C   0  0  0  0  0  0  0  0  0  0  0  0
   -0.6756   -0.0969    5.1919 N   0  0  0  0  0  0  0  0  0  0  0  0
   -1.3451   -1.2522    5.0453 C   0  0  0  0  0  0  0  0  0  0  0  0
   -2.6542   -1.3367    5.8374 C   0  0  0  0  0  0  0  0  0  0  0  0
   -2.7078   -2.6252    6.6697 C   0  0  0  0  0  0  0  0  0  0  0  0
   -4.0012   -2.6810    7.4776 C   0  0  0  0  0  0  0  0  0  0  0  0
   -1.4973   -2.6613    7.6019 C   0  0  0  0  0  0  0  0  0  0  0  0
   -3.7509   -1.1908    4.8806 N   0  0  0  0  0  0  0  0  0  0  0  0
   -4.3550    0.0101    4.8494 C   0  0  0  0  0  0  0  0  0  0  0  0
   -5.3104    0.3517    3.6888 C   0  0  0  0  0  0  0  0  0  0  0  0
   -4.4215    0.6694    2.4795 C   0  0  0  0  0  0  0  0  0  0  0  0
   -5.2401    1.2502    1.3264 C   0  0  0  0  0  0  0  0  0  0  0  0
   -5.9681    2.4088    1.7821 N   0  0  0  0  0  0  0  0  0  0  0  0
   -5.4895    3.6473    1.5021 C   0  0  0  0  0  0  0  0  0  0  0  0
   -6.2151    4.7357    2.1052 C   0  0  0  0  0  0  0  0  0  0  0  0
   -6.7409    5.7216    2.5540 C   0  0  0  0  0  0  0  0  0  0  0  0
   -7.3147    6.9534    3.0926 C   0  0  0  0  0  0  0  0  0  0  0  0
   -6.4350    8.1053    2.8381 N   0  0  0  0  0  0  0  0  0  0  0  0
   -5.1318    7.9857    3.4679 C   0  0  0  0  0  0  0  0  0  0  0  0
   -6.2760    8.4117    1.4272 C   0  0  0  0  0  0  0  0  0  0  0  0
   -7.5262    6.7798    4.6064 C   0  0  0  0  0  0  0  0  0  0  0  0
   -8.6868    7.1822    2.4369 C   0  0  0  0  0  0  0  0  0  0  0  0
   -4.5366    3.8445    0.7650 O   0  0  0  0  0  0  0  0  0  0  0  0
   -6.9076    2.1132    2.8347 C   0  0  0  0  0  0  0  0  0  0  0  0
   -6.1741    1.5602    4.0598 C   0  0  0  0  0  0  0  0  0  0  0  0
   -4.0883    0.8940    5.6504 O   0  0  0  0  0  0  0  0  0  0  0  0
   -3.9820   -2.3210    4.0073 C   0  0  0  0  0  0  0  0  0  0  0  0
   -0.9631   -2.1414    4.3020 O   0  0  0  0  0  0  0  0  0  0  0  0
    1.0463    1.4966    4.4248 C   0  0  0  0  0  0  0  0  0  0  0  0
    0.4006    2.1499    3.1960 C   0  0  0  0  0  0  0  0  0  0  0  0
    0.4453    1.2412    1.9674 C   0  0  0  0  0  0  0  0  0  0  0  0
   -0.0735    1.9389    0.8074 N   0  0  0  0  0  0  0  0  0  0  0  0
   -1.4290    2.3993    1.0797 C   0  0  0  0  0  0  0  0  0  0  0  0
   -1.4522    3.2301    2.3618 C   0  0  0  0  0  0  0  0  0  0  0  0
   -0.9352    2.5197    3.4666 O   0  0  0  0  0  0  0  0  0  0  0  0
    1.5062   -0.2586    6.9031 O   0  0  0  0  0  0  0  0  0  0  0  0
    3.4963   -2.0085    6.2547 C   0  0  0  0  0  0  0  0  0  0  0  0
    4.8417   -1.3504    5.9491 C   0  0  0  0  0  0  0  0  0  0  0  0
    5.1972   -1.5880    4.4841 C   0  0  0  0  0  0  0  0  0  0  0  0
    5.5370   -1.5615    1.7534 O   0  0  0  0  0  0  0  0  0  0  0  0
    0.8033   -0.6596   -1.6777 C   0  0  0  0  0  0  0  0  0  0  0  0
    0.4752    0.0053   -2.8768 C   0  0  0  0  0  0  0  0  0  0  0  0
   -0.0376    1.2987   -2.8438 C   0  0  0  0  0  0  0  0  0  0  0  0
   -0.2106    1.9017   -1.6185 C   0  0  0  0  0  0  0  0  0  0  0  0
    0.0936    1.2454   -0.4097 C   0  0  0  0  0  0  0  0  0  0  0  0
    0.5938   -0.0435   -0.4471 C   0  0  0  0  0  0  0  0  0  0  0  0
   -6.1728   -0.6986    3.3813 F   0  0  0  0  0  0  0  0  0  0  0  0
    0.2732   -5.8375   -1.9033 H   0  0  0  0  0  0  0  0  0  0  0  0
   -1.4933   -5.8865   -2.0509 H   0  0  0  0  0  0  0  0  0  0  0  0
   -0.4802   -6.6138   -3.3082 H   0  0  0  0  0  0  0  0  0  0  0  0
   -0.6002   -3.6256   -2.6731 H   0  0  0  0  0  0  0  0  0  0  0  0
   -1.9443   -2.4180   -4.1667 H   0  0  0  0  0  0  0  0  0  0  0  0
   -1.2024   -3.0954   -5.6417 H   0  0  0  0  0  0  0  0  0  0  0  0
   -2.9307   -3.3641   -5.3152 H   0  0  0  0  0  0  0  0  0  0  0  0
    2.1797   -6.2855   -6.3618 H   0  0  0  0  0  0  0  0  0  0  0  0
    3.6676   -4.2815   -6.6096 H   0  0  0  0  0  0  0  0  0  0  0  0
    3.1940   -2.2943   -5.1905 H   0  0  0  0  0  0  0  0  0  0  0  0
    0.5850   -1.4459   -5.8881 H   0  0  0  0  0  0  0  0  0  0  0  0
   -0.4087   -0.0457   -5.4418 H   0  0  0  0  0  0  0  0  0  0  0  0
    1.6700    1.3390   -5.2192 H   0  0  0  0  0  0  0  0  0  0  0  0
    2.6450   -0.0453   -5.7056 H   0  0  0  0  0  0  0  0  0  0  0  0
    1.5013    0.6680   -6.8463 H   0  0  0  0  0  0  0  0  0  0  0  0
    1.2044   -2.8966   -0.1284 H   0  0  0  0  0  0  0  0  0  0  0  0
    1.6140   -3.9786   -1.4649 H   0  0  0  0  0  0  0  0  0  0  0  0
    3.0463   -3.9475    1.1463 H   0  0  0  0  0  0  0  0  0  0  0  0
    3.5307   -4.9461   -0.2258 H   0  0  0  0  0  0  0  0  0  0  0  0
    4.7069   -3.8818    0.5490 H   0  0  0  0  0  0  0  0  0  0  0  0
    5.1686   -3.0306   -1.7645 H   0  0  0  0  0  0  0  0  0  0  0  0
    3.8349   -3.8961   -2.5309 H   0  0  0  0  0  0  0  0  0  0  0  0
    3.9303   -2.1376   -2.6517 H   0  0  0  0  0  0  0  0  0  0  0  0
    4.6915   -1.2940   -0.2331 H   0  0  0  0  0  0  0  0  0  0  0  0
    3.0464   -0.6974   -0.5816 H   0  0  0  0  0  0  0  0  0  0  0  0
    3.9101   -0.0489    3.6579 H   0  0  0  0  0  0  0  0  0  0  0  0
    2.0688   -1.7647    3.3684 H   0  0  0  0  0  0  0  0  0  0  0  0
    0.7068   -0.5539    3.7607 H   0  0  0  0  0  0  0  0  0  0  0  0
   -0.9899    0.6019    5.8468 H   0  0  0  0  0  0  0  0  0  0  0  0
   -2.7288   -0.4801    6.5134 H   0  0  0  0  0  0  0  0  0  0  0  0
   -2.6507   -3.4871    5.9994 H   0  0  0  0  0  0  0  0  0  0  0  0
   -4.0412   -1.8490    8.1773 H   0  0  0  0  0  0  0  0  0  0  0  0
   -4.8752   -2.6229    6.8338 H   0  0  0  0  0  0  0  0  0  0  0  0
   -4.0512   -3.6088    8.0423 H   0  0  0  0  0  0  0  0  0  0  0  0
   -1.4885   -1.7919    8.2557 H   0  0  0  0  0  0  0  0  0  0  0  0
   -1.5282   -3.5559    8.2189 H   0  0  0  0  0  0  0  0  0  0  0  0
   -0.5697   -2.6701    7.0346 H   0  0  0  0  0  0  0  0  0  0  0  0
   -3.6836    1.4010    2.8142 H   0  0  0  0  0  0  0  0  0  0  0  0
   -3.8956   -0.2253    2.1451 H   0  0  0  0  0  0  0  0  0  0  0  0
   -4.5840    1.5595    0.5102 H   0  0  0  0  0  0  0  0  0  0  0  0
   -5.9543    0.5053    0.9600 H   0  0  0  0  0  0  0  0  0  0  0  0
   -5.2397    7.9171    4.5471 H   0  0  0  0  0  0  0  0  0  0  0  0
   -4.5597    7.1184    3.1079 H   0  0  0  0  0  0  0  0  0  0  0  0
   -4.5636    8.8884    3.2476 H   0  0  0  0  0  0  0  0  0  0  0  0
   -5.5959    9.2573    1.3370 H   0  0  0  0  0  0  0  0  0  0  0  0
   -5.8634    7.5717    0.8503 H   0  0  0  0  0  0  0  0  0  0  0  0
   -7.2296    8.7068    0.9968 H   0  0  0  0  0  0  0  0  0  0  0  0
   -6.6421    6.3742    5.0902 H   0  0  0  0  0  0  0  0  0  0  0  0
   -7.7675    7.7438    5.0460 H   0  0  0  0  0  0  0  0  0  0  0  0
   -8.3490    6.0922    4.7871 H   0  0  0  0  0  0  0  0  0  0  0  0
   -9.0430    8.1771    2.6904 H   0  0  0  0  0  0  0  0  0  0  0  0
   -8.6345    7.0813    1.3565 H   0  0  0  0  0  0  0  0  0  0  0  0
   -9.3979    6.4470    2.8061 H   0  0  0  0  0  0  0  0  0  0  0  0
   -7.4534    3.0196    3.1012 H   0  0  0  0  0  0  0  0  0  0  0  0
   -7.6173    1.3654    2.4632 H   0  0  0  0  0  0  0  0  0  0  0  0
   -6.8947    1.2566    4.8202 H   0  0  0  0  0  0  0  0  0  0  0  0
   -5.5225    2.3211    4.4894 H   0  0  0  0  0  0  0  0  0  0  0  0
   -4.5960   -3.0711    4.5108 H   0  0  0  0  0  0  0  0  0  0  0  0
   -4.4861   -2.0358    3.0919 H   0  0  0  0  0  0  0  0  0  0  0  0
   -3.0179   -2.7614    3.7518 H   0  0  0  0  0  0  0  0  0  0  0  0
    0.7803    2.0802    5.3078 H   0  0  0  0  0  0  0  0  0  0  0  0
    2.1301    1.5547    4.2992 H   0  0  0  0  0  0  0  0  0  0  0  0
    0.9718    3.0674    2.9643 H   0  0  0  0  0  0  0  0  0  0  0  0
    1.4813    0.9536    1.7735 H   0  0  0  0  0  0  0  0  0  0  0  0
   -0.1640    0.3471    2.1777 H   0  0  0  0  0  0  0  0  0  0  0  0
   -1.7987    3.0105    0.2584 H   0  0  0  0  0  0  0  0  0  0  0  0
   -2.0996    1.5337    1.1999 H   0  0  0  0  0  0  0  0  0  0  0  0
   -0.8639    4.1470    2.2083 H   0  0  0  0  0  0  0  0  0  0  0  0
   -2.4771    3.5054    2.6123 H   0  0  0  0  0  0  0  0  0  0  0  0
    3.1556   -1.7769    7.2634 H   0  0  0  0  0  0  0  0  0  0  0  0
    3.5587   -3.0899    6.1162 H   0  0  0  0  0  0  0  0  0  0  0  0
    4.7663   -0.2789    6.1476 H   0  0  0  0  0  0  0  0  0  0  0  0
    5.6142   -1.7642    6.5963 H   0  0  0  0  0  0  0  0  0  0  0  0
    5.3690   -2.6518    4.3150 H   0  0  0  0  0  0  0  0  0  0  0  0
    6.1023   -1.0495    4.2056 H   0  0  0  0  0  0  0  0  0  0  0  0
   -0.2990    1.8262   -3.7488 H   0  0  0  0  0  0  0  0  0  0  0  0
   -0.5887    2.9111   -1.5787 H   0  0  0  0  0  0  0  0  0  0  0  0
    0.8154   -0.6037    0.4445 H   0  0  0  0  0  0  0  0  0  0  0  0
  1  2  1  0  0  0  0
  2  3  1  0  0  0  0
  2  5  1  0  0  0  0
  3  4  1  0  0  0  0
  5  6  2  0  0  0  0
  5 10  1  0  0  0  0
  6  7  1  0  0  0  0
  7  8  2  0  0  0  0
  8  9  1  0  0  0  0
  9 10  2  0  0  0  0
 10 11  1  0  0  0  0
 11 12  1  0  0  0  0
 11 15  2  0  0  0  0
 12 13  1  0  0  0  0
 12 68  1  0  0  0  0
 13 14  1  0  0  0  0
 15 16  1  0  0  0  0
 15 67  1  0  0  0  0
 16 17  1  0  0  0  0
 17 18  1  0  0  0  0
 17 19  1  0  0  0  0
 17 20  1  0  0  0  0
 20 21  1  0  0  0  0
 21 22  1  0  0  0  0
 22 23  1  0  0  0  0
 22 66  2  0  0  0  0
 23 24  1  0  0  0  0
 23 65  1  0  0  0  0
 24 25  1  0  0  0  0
 25 26  1  0  0  0  0
 25 63  1  0  0  0  0
 26 27  1  0  0  0  0
 26 62  2  0  0  0  0
 27 28  1  0  0  0  0
 27 55  1  0  0  0  0
 28 29  1  0  0  0  0
 29 30  1  0  0  0  0
 29 54  2  0  0  0  0
 30 31  1  0  0  0  0
 30 34  1  0  0  0  0
 31 32  1  0  0  0  0
 31 33  1  0  0  0  0
 34 35  1  0  0  0  0
 34 53  1  0  0  0  0
 35 36  1  0  0  0  0
 35 52  2  0  0  0  0
 36 37  1  0  0  0  0
 36 51  1  0  0  0  0
 36 73  1  0  0  0  0
 37 38  1  0  0  0  0
 38 39  1  0  0  0  0
 39 40  1  0  0  0  0
 39 50  1  0  0  0  0
 40 41  1  0  0  0  0
 40 49  2  0  0  0  0
 42 43  1  0  0  0  0
 43 44  1  0  0  0  0
 43 47  1  0  0  0  0
 43 48  1  0  0  0  0
 44 45  1  0  0  0  0
 44 46  1  0  0  0  0
 50 51  1  0  0  0  0
 55 56  1  0  0  0  0
 56 57  1  0  0  0  0
 56 61  1  0  0  0  0
 57 58  1  0  0  0  0
 58 59  1  0  0  0  0
 58 71  1  0  0  0  0
 59 60  1  0  0  0  0
 60 61  1  0  0  0  0
 63 64  1  0  0  0  0
 64 65  1  0  0  0  0
 67 68  2  0  0  0  0
 67 72  1  0  0  0  0
 68 69  1  0  0  0  0
 69 70  2  0  0  0  0
 70 71  1  0  0  0  0
 71 72  2  0  0  0  0
 41 42  3  0  0  0  0
  1 74  1  0  0  0  0
  1 75  1  0  0  0  0
  1 76  1  0  0  0  0
  2 77  1  0  0  0  0
  4 78  1  0  0  0  0
  4 79  1  0  0  0  0
  4 80  1  0  0  0  0
  7 81  1  0  0  0  0
  8 82  1  0  0  0  0
  9 83  1  0  0  0  0
 13 84  1  0  0  0  0
 13 85  1  0  0  0  0
 14 86  1  0  0  0  0
 14 87  1  0  0  0  0
 14 88  1  0  0  0  0
 16 89  1  0  0  0  0
 16 90  1  0  0  0  0
 18 91  1  0  0  0  0
 18 92  1  0  0  0  0
 18 93  1  0  0  0  0
 19 94  1  0  0  0  0
 19 95  1  0  0  0  0
 19 96  1  0  0  0  0
 20 97  1  0  0  0  0
 20 98  1  0  0  0  0
 23 99  1  0  0  0  0
 24100  1  0  0  0  0
 27101  1  0  0  0  0
 28102  1  0  0  0  0
 30103  1  0  0  0  0
 31104  1  0  0  0  0
 32105  1  0  0  0  0
 32106  1  0  0  0  0
 32107  1  0  0  0  0
 33108  1  0  0  0  0
 33109  1  0  0  0  0
 33110  1  0  0  0  0
 37111  1  0  0  0  0
 37112  1  0  0  0  0
 38113  1  0  0  0  0
 38114  1  0  0  0  0
 45115  1  0  0  0  0
 45116  1  0  0  0  0
 45117  1  0  0  0  0
 46118  1  0  0  0  0
 46119  1  0  0  0  0
 46120  1  0  0  0  0
 47121  1  0  0  0  0
 47122  1  0  0  0  0
 47123  1  0  0  0  0
 48124  1  0  0  0  0
 48125  1  0  0  0  0
 48126  1  0  0  0  0
 50127  1  0  0  0  0
 50128  1  0  0  0  0
 51129  1  0  0  0  0
 51130  1  0  0  0  0
 53131  1  0  0  0  0
 53132  1  0  0  0  0
 53133  1  0  0  0  0
 55134  1  0  0  0  0
 55135  1  0  0  0  0
 56136  1  0  0  0  0
 57137  1  0  0  0  0
 57138  1  0  0  0  0
 59139  1  0  0  0  0
 59140  1  0  0  0  0
 60141  1  0  0  0  0
 60142  1  0  0  0  0
 63143  1  0  0  0  0
 63144  1  0  0  0  0
 64145  1  0  0  0  0
 64146  1  0  0  0  0
 65147  1  0  0  0  0
 65148  1  0  0  0  0
 69149  1  0  0  0  0
 70150  1  0  0  0  0
 72151  1  0  0  0  0
M  END
$$$$
