mol_bioactive_14
     RDKit          3D

151157  0  0  0  0  0  0  0  0999 V2000
   -0.9033   15.7868  -10.4571 C   0  0  0  0  0  0  0  0  0  0  0  0
   -0.0328   15.1563  -11.5381 C   0  0  2  0  0  0  0  0  0  0  0  0
   -0.7912   14.2957  -12.4033 O   0  0  0  0  0  0  0  0  0  0  0  0
   -1.6196   14.9988  -13.3172 C   0  0  0  0  0  0  0  0  0  0  0  0
    1.1843   14.4033  -11.0109 C   0  0  0  0  0  0  0  0  0  0  0  0
    2.3797   14.9357  -11.4149 N   0  0  0  0  0  0  0  0  0  0  0  0
    3.5133   14.2644  -11.1309 C   0  0  0  0  0  0  0  0  0  0  0  0
    3.5367   13.0590  -10.4627 C   0  0  0  0  0  0  0  0  0  0  0  0
    2.3256   12.5303  -10.0339 C   0  0  0  0  0  0  0  0  0  0  0  0
    1.1230   13.2128  -10.2652 C   0  0  0  0  0  0  0  0  0  0  0  0
   -0.1211   12.5954   -9.7915 C   0  0  0  0  0  0  0  0  0  0  0  0
   -0.8182   11.6711  -10.5531 N   0  0  0  0  0  0  0  0  0  0  0  0
   -0.3975   11.1402  -11.8441 C   0  0  0  0  0  0  0  0  0  0  0  0
    0.2036    9.7500  -11.7254 C   0  0  0  0  0  0  0  0  0  0  0  0
   -0.8414   12.7895   -8.6089 C   0  0  0  0  0  0  0  0  0  0  0  0
   -0.5250   13.7026   -7.4432 C   0  0  0  0  0  0  0  0  0  0  0  0
    0.4787   13.2241   -6.3529 C   0  0  0  0  0  0  0  0  0  0  0  0
    0.2399   14.0891   -5.0899 C   0  0  0  0  0  0  0  0  0  0  0  0
    1.9333   13.4759   -6.7896 C   0  0  0  0  0  0  0  0  0  0  0  0
    0.3468   11.7262   -5.9920 C   0  0  0  0  0  0  0  0  0  0  0  0
   -0.7916   11.4728   -5.1581 O   0  0  0  0  0  0  0  0  0  0  0  0
   -0.8501   10.1771   -4.7207 C   0  0  0  0  0  0  0  0  0  0  0  0
   -1.9371   10.0246   -3.6548 C   0  0  1  0  0  0  0  0  0  0  0  0
   -2.4997    8.6675   -3.7230 N   0  0  0  0  0  0  0  0  0  0  0  0
   -3.4826    8.4577   -2.7377 N   0  0  0  0  0  0  0  0  0  0  0  0
   -4.8230    8.1632   -3.0003 C   0  0  0  0  0  0  0  0  0  0  0  0
   -5.3743    8.5639   -4.3860 C   0  0  1  0  0  0  0  0  0  0  0  0
   -6.4481    7.6480   -4.7608 N   0  0  0  0  0  0  0  0  0  0  0  0
   -6.1351    6.4651   -5.4019 C   0  0  0  0  0  0  0  0  0  0  0  0
   -7.3137    5.4755   -5.5480 C   0  0  2  0  0  0  0  0  0  0  0  0
   -6.8702    4.0162   -5.2587 C   0  0  0  0  0  0  0  0  0  0  0  0
   -8.0171    3.0292   -5.5019 C   0  0  0  0  0  0  0  0  0  0  0  0
   -6.3847    3.8704   -3.8096 C   0  0  0  0  0  0  0  0  0  0  0  0
   -7.9175    5.6430   -6.8955 N   0  0  0  0  0  0  0  0  0  0  0  0
   -9.0790    6.4236   -6.9868 C   0  0  0  0  0  0  0  0  0  0  0  0
   -9.7791    6.5387   -8.3638 C   0  0  0  0  0  0  0  0  0  0  0  0
  -10.8885    7.5962   -8.3266 C   0  0  0  0  0  0  0  0  0  0  0  0
  -11.6417    7.6622   -9.6499 C   0  0  0  0  0  0  0  0  0  0  0  0
  -12.0928    6.3472  -10.1014 N   0  0  0  0  0  0  0  0  0  0  0  0
  -13.1486    6.2044  -11.0049 C   0  0  0  0  0  0  0  0  0  0  0  0
  -14.1146    7.2754  -11.1280 C   0  0  0  0  0  0  0  0  0  0  0  0
  -14.9686    8.1171  -11.2273 C   0  0  0  0  0  0  0  0  0  0  0  0
  -16.0717    9.1042  -11.3509 C   0  0  0  0  0  0  0  0  0  0  0  0
  -17.0081    8.9125  -10.2113 N   0  0  0  0  0  0  0  0  0  0  0  0
  -16.4378    9.2455   -8.9046 C   0  0  0  0  0  0  0  0  0  0  0  0
  -18.3037    9.5770  -10.3581 C   0  0  0  0  0  0  0  0  0  0  0  0
  -15.4603   10.5199  -11.4188 C   0  0  0  0  0  0  0  0  0  0  0  0
  -16.7583    8.8157  -12.7092 C   0  0  0  0  0  0  0  0  0  0  0  0
  -13.3203    5.2057  -11.6934 O   0  0  0  0  0  0  0  0  0  0  0  0
  -11.0972    5.2852  -10.0908 C   0  0  0  0  0  0  0  0  0  0  0  0
  -10.3894    5.1874   -8.7487 C   0  0  0  0  0  0  0  0  0  0  0  0
   -9.5762    6.9448   -5.9820 O   0  0  0  0  0  0  0  0  0  0  0  0
   -7.0415    5.4445   -8.0525 C   0  0  0  0  0  0  0  0  0  0  0  0
   -5.0278    6.2655   -5.8973 O   0  0  0  0  0  0  0  0  0  0  0  0
   -5.8965   10.0030   -4.2890 C   0  0  0  0  0  0  0  0  0  0  0  0
   -5.4574   10.8998   -5.4497 C   0  0  1  0  0  0  0  0  0  0  0  0
   -5.8567   10.3481   -6.8416 C   0  0  0  0  0  0  0  0  0  0  0  0
   -5.6806   11.3722   -7.8876 N   0  0  0  0  0  0  0  0  0  0  0  0
   -6.1914   12.7159   -7.5348 C   0  0  0  0  0  0  0  0  0  0  0  0
   -6.8612   12.7185   -6.1563 C   0  0  0  0  0  0  0  0  0  0  0  0
   -5.9728   12.2181   -5.1503 O   0  0  0  0  0  0  0  0  0  0  0  0
   -5.5877    7.7210   -2.1341 O   0  0  0  0  0  0  0  0  0  0  0  0
   -2.9592    8.4959   -1.3725 C   0  0  0  0  0  0  0  0  0  0  0  0
   -2.3096    9.8647   -1.1364 C   0  0  0  0  0  0  0  0  0  0  0  0
   -1.3219   10.2241   -2.2574 C   0  0  0  0  0  0  0  0  0  0  0  0
   -0.1056    9.2825   -5.1020 O   0  0  0  0  0  0  0  0  0  0  0  0
   -2.0937   12.0903   -8.7735 C   0  0  0  0  0  0  0  0  0  0  0  0
   -2.0393   11.3890   -9.9745 C   0  0  0  0  0  0  0  0  0  0  0  0
   -3.1068   10.5961  -10.4238 C   0  0  0  0  0  0  0  0  0  0  0  0
   -4.2881   10.5930   -9.6774 C   0  0  0  0  0  0  0  0  0  0  0  0
   -4.4215   11.3414   -8.5083 C   0  0  0  0  0  0  0  0  0  0  0  0
   -3.2996   12.0430   -8.0287 C   0  0  0  0  0  0  0  0  0  0  0  0
   -8.8961    6.9168   -9.3408 F   0  0  0  0  0  0  0  0  0  0  0  0
   -1.5852   15.0606  -10.0090 H   0  0  0  0  0  0  0  0  0  0  0  0
   -0.3044   16.2567   -9.6716 H   0  0  0  0  0  0  0  0  0  0  0  0
   -1.5441   16.5611  -10.8923 H   0  0  0  0  0  0  0  0  0  0  0  0
    0.3634   15.9777  -12.1511 H   0  0  0  0  0  0  0  0  0  0  0  0
   -2.4273   15.5139  -12.7914 H   0  0  0  0  0  0  0  0  0  0  0  0
   -1.0340   15.7098  -13.9059 H   0  0  0  0  0  0  0  0  0  0  0  0
   -2.0635   14.2715  -14.0014 H   0  0  0  0  0  0  0  0  0  0  0  0
    4.4297   14.7291  -11.4821 H   0  0  0  0  0  0  0  0  0  0  0  0
    4.4709   12.5432  -10.2757 H   0  0  0  0  0  0  0  0  0  0  0  0
    2.3180   11.5759   -9.5092 H   0  0  0  0  0  0  0  0  0  0  0  0
   -1.2697   11.1330  -12.5063 H   0  0  0  0  0  0  0  0  0  0  0  0
    0.3285   11.8199  -12.2979 H   0  0  0  0  0  0  0  0  0  0  0  0
    1.0719    9.7491  -11.0594 H   0  0  0  0  0  0  0  0  0  0  0  0
   -0.5210    9.0343  -11.3277 H   0  0  0  0  0  0  0  0  0  0  0  0
    0.5272    9.3931  -12.7077 H   0  0  0  0  0  0  0  0  0  0  0  0
   -0.1814   14.6654   -7.8429 H   0  0  0  0  0  0  0  0  0  0  0  0
   -1.4777   13.9423   -6.9524 H   0  0  0  0  0  0  0  0  0  0  0  0
    0.9061   13.7878   -4.2730 H   0  0  0  0  0  0  0  0  0  0  0  0
    0.4269   15.1491   -5.2989 H   0  0  0  0  0  0  0  0  0  0  0  0
   -0.7898   14.0019   -4.7260 H   0  0  0  0  0  0  0  0  0  0  0  0
    2.6163   13.4284   -5.9321 H   0  0  0  0  0  0  0  0  0  0  0  0
    2.2735   12.7113   -7.4857 H   0  0  0  0  0  0  0  0  0  0  0  0
    2.0586   14.4625   -7.2499 H   0  0  0  0  0  0  0  0  0  0  0  0
    0.2938   11.1030   -6.8922 H   0  0  0  0  0  0  0  0  0  0  0  0
    1.2440   11.4204   -5.4330 H   0  0  0  0  0  0  0  0  0  0  0  0
   -2.7271   10.7599   -3.8418 H   0  0  0  0  0  0  0  0  0  0  0  0
   -2.7392    8.3581   -4.6652 H   0  0  0  0  0  0  0  0  0  0  0  0
   -4.5924    8.4861   -5.1404 H   0  0  0  0  0  0  0  0  0  0  0  0
   -7.2538    7.6248   -4.1434 H   0  0  0  0  0  0  0  0  0  0  0  0
   -8.0653    5.7304   -4.7874 H   0  0  0  0  0  0  0  0  0  0  0  0
   -6.0344    3.7346   -5.9094 H   0  0  0  0  0  0  0  0  0  0  0  0
   -8.8914    3.2801   -4.8908 H   0  0  0  0  0  0  0  0  0  0  0  0
   -8.3258    3.0269   -6.5520 H   0  0  0  0  0  0  0  0  0  0  0  0
   -7.7127    2.0070   -5.2514 H   0  0  0  0  0  0  0  0  0  0  0  0
   -7.1715    4.1410   -3.0978 H   0  0  0  0  0  0  0  0  0  0  0  0
   -6.0844    2.8381   -3.6018 H   0  0  0  0  0  0  0  0  0  0  0  0
   -5.5168    4.5073   -3.6134 H   0  0  0  0  0  0  0  0  0  0  0  0
  -11.5984    7.3693   -7.5220 H   0  0  0  0  0  0  0  0  0  0  0  0
  -10.4577    8.5816   -8.1114 H   0  0  0  0  0  0  0  0  0  0  0  0
  -12.4889    8.3453   -9.5414 H   0  0  0  0  0  0  0  0  0  0  0  0
  -10.9971    8.0715  -10.4377 H   0  0  0  0  0  0  0  0  0  0  0  0
  -17.1107    8.9153   -8.1044 H   0  0  0  0  0  0  0  0  0  0  0  0
  -15.4887    8.7297   -8.7239 H   0  0  0  0  0  0  0  0  0  0  0  0
  -16.2772   10.3225   -8.7795 H   0  0  0  0  0  0  0  0  0  0  0  0
  -18.9418    9.3680   -9.4913 H   0  0  0  0  0  0  0  0  0  0  0  0
  -18.2098   10.6645  -10.4499 H   0  0  0  0  0  0  0  0  0  0  0  0
  -18.8616    9.1946  -11.2199 H   0  0  0  0  0  0  0  0  0  0  0  0
  -14.8346   10.7424  -10.5482 H   0  0  0  0  0  0  0  0  0  0  0  0
  -14.8131   10.6254  -12.2982 H   0  0  0  0  0  0  0  0  0  0  0  0
  -16.2320   11.2928  -11.4895 H   0  0  0  0  0  0  0  0  0  0  0  0
  -17.2305    7.8268  -12.7161 H   0  0  0  0  0  0  0  0  0  0  0  0
  -17.5195    9.5634  -12.9561 H   0  0  0  0  0  0  0  0  0  0  0  0
  -16.0295    8.8258  -13.5300 H   0  0  0  0  0  0  0  0  0  0  0  0
  -11.5709    4.3232  -10.3147 H   0  0  0  0  0  0  0  0  0  0  0  0
  -10.3805    5.4911  -10.8949 H   0  0  0  0  0  0  0  0  0  0  0  0
   -9.6302    4.4018   -8.8133 H   0  0  0  0  0  0  0  0  0  0  0  0
  -11.1000    4.8699   -7.9753 H   0  0  0  0  0  0  0  0  0  0  0  0
   -6.2772    4.6968   -7.8394 H   0  0  0  0  0  0  0  0  0  0  0  0
   -7.6040    5.0943   -8.9149 H   0  0  0  0  0  0  0  0  0  0  0  0
   -6.5688    6.3980   -8.3022 H   0  0  0  0  0  0  0  0  0  0  0  0
   -6.9939   10.0175   -4.2179 H   0  0  0  0  0  0  0  0  0  0  0  0
   -5.5523   10.4808   -3.3600 H   0  0  0  0  0  0  0  0  0  0  0  0
   -4.3669   10.9989   -5.4170 H   0  0  0  0  0  0  0  0  0  0  0  0
   -5.2963    9.4355   -7.0827 H   0  0  0  0  0  0  0  0  0  0  0  0
   -6.9164   10.0619   -6.8343 H   0  0  0  0  0  0  0  0  0  0  0  0
   -5.4002   13.4735   -7.5321 H   0  0  0  0  0  0  0  0  0  0  0  0
   -6.9229   13.0205   -8.2915 H   0  0  0  0  0  0  0  0  0  0  0  0
   -7.1355   13.7407   -5.8767 H   0  0  0  0  0  0  0  0  0  0  0  0
   -7.7810   12.1239   -6.1476 H   0  0  0  0  0  0  0  0  0  0  0  0
   -3.7562    8.3274   -0.6407 H   0  0  0  0  0  0  0  0  0  0  0  0
   -2.2225    7.6900   -1.2676 H   0  0  0  0  0  0  0  0  0  0  0  0
   -3.0929   10.6325   -1.1046 H   0  0  0  0  0  0  0  0  0  0  0  0
   -1.8006    9.8808   -0.1670 H   0  0  0  0  0  0  0  0  0  0  0  0
   -0.4218    9.6005   -2.1533 H   0  0  0  0  0  0  0  0  0  0  0  0
   -0.9916   11.2640   -2.1398 H   0  0  0  0  0  0  0  0  0  0  0  0
   -3.0518   10.0392  -11.3526 H   0  0  0  0  0  0  0  0  0  0  0  0
   -5.1413   10.0283  -10.0462 H   0  0  0  0  0  0  0  0  0  0  0  0
   -3.3639   12.5998   -7.0997 H   0  0  0  0  0  0  0  0  0  0  0  0
  1  2  1  0
  2  3  1  0
  2  5  1  0
  3  4  1  0
  5  6  2  0
  5 10  1  0
  6  7  1  0
  7  8  2  0
  8  9  1  0
  9 10  2  0
 10 11  1  0
 11 12  1  0
 11 15  2  0
 12 13  1  0
 12 68  1  0
 13 14  1  0
 15 16  1  0
 15 67  1  0
 16 17  1  0
 17 18  1  0
 17 19  1  0
 17 20  1  0
 20 21  1  0
 21 22  1  0
 22 23  1  0
 22 66  2  0
 23 24  1  0
 23 65  1  0
 24 25  1  0
 25 26  1  0
 25 63  1  0
 26 27  1  0
 26 62  2  0
 27 28  1  0
 27 55  1  0
 28 29  1  0
 29 30  1  0
 29 54  2  0
 30 31  1  0
 30 34  1  0
 31 32  1  0
 31 33  1  0
 34 35  1  0
 34 53  1  0
 35 36  1  0
 35 52  2  0
 36 37  1  0
 36 51  1  0
 36 73  1  0
 37 38  1  0
 38 39  1  0
 39 40  1  0
 39 50  1  0
 40 41  1  0
 40 49  2  0
 42 43  1  0
 43 44  1  0
 43 47  1  0
 43 48  1  0
 44 45  1  0
 44 46  1  0
 50 51  1  0
 55 56  1  0
 56 57  1  0
 56 61  1  0
 57 58  1  0
 58 59  1  0
 58 71  1  0
 59 60  1  0
 60 61  1  0
 63 64  1  0
 64 65  1  0
 67 68  2  0
 67 72  1  0
 68 69  1  0
 69 70  2  0
 70 71  1  0
 71 72  2  0
 41 42  3  0
  1 74  1  0
  1 75  1  0
  1 76  1  0
  2 77  1  6
  4 78  1  0
  4 79  1  0
  4 80  1  0
  7 81  1  0
  8 82  1  0
  9 83  1  0
 13 84  1  0
 13 85  1  0
 14 86  1  0
 14 87  1  0
 14 88  1  0
 16 89  1  0
 16 90  1  0
 18 91  1  0
 18 92  1  0
 18 93  1  0
 19 94  1  0
 19 95  1  0
 19 96  1  0
 20 97  1  0
 20 98  1  0
 23 99  1  6
 24100  1  0
 27101  1  6
 28102  1  0
 30103  1  1
 31104  1  0
 32105  1  0
 32106  1  0
 32107  1  0
 33108  1  0
 33109  1  0
 33110  1  0
 37111  1  0
 37112  1  0
 38113  1  0
 38114  1  0
 45115  1  0
 45116  1  0
 45117  1  0
 46118  1  0
 46119  1  0
 46120  1  0
 47121  1  0
 47122  1  0
 47123  1  0
 48124  1  0
 48125  1  0
 48126  1  0
 50127  1  0
 50128  1  0
 51129  1  0
 51130  1  0
 53131  1  0
 53132  1  0
 53133  1  0
 55134  1  0
 55135  1  0
 56136  1  6
 57137  1  0
 57138  1  0
 59139  1  0
 59140  1  0
 60141  1  0
 60142  1  0
 63143  1  0
 63144  1  0
 64145  1  0
 64146  1  0
 65147  1  0
 65148  1  0
 69149  1  0
 70150  1  0
 72151  1  0
M  END
$$$$
