mol_bioactive_25
     RDKit          3D

151157  0  0  0  0  0  0  0  0999 V2000
   -1.0317   15.7379  -10.4256 C   0  0  0  0  0  0  0  0  0  0  0  0
   -0.1444   15.1964  -11.5425 C   0  0  2  0  0  0  0  0  0  0  0  0
   -0.8834   14.3438  -12.4302 O   0  0  0  0  0  0  0  0  0  0  0  0
   -1.7071   15.0546  -13.3433 C   0  0  0  0  0  0  0  0  0  0  0  0
    1.1073   14.4744  -11.0600 C   0  0  0  0  0  0  0  0  0  0  0  0
    2.2728   15.0759  -11.4534 N   0  0  0  0  0  0  0  0  0  0  0  0
    3.4397   14.4483  -11.2013 C   0  0  0  0  0  0  0  0  0  0  0  0
    3.5262   13.2282  -10.5642 C   0  0  0  0  0  0  0  0  0  0  0  0
    2.3454   12.6268  -10.1514 C   0  0  0  0  0  0  0  0  0  0  0  0
    1.1068   13.2543  -10.3597 C   0  0  0  0  0  0  0  0  0  0  0  0
   -0.1029   12.5415   -9.9298 C   0  0  0  0  0  0  0  0  0  0  0  0
   -0.7300   11.6119  -10.7460 N   0  0  0  0  0  0  0  0  0  0  0  0
   -0.2819   11.1997  -12.0717 C   0  0  0  0  0  0  0  0  0  0  0  0
    0.3628    9.8247  -12.0645 C   0  0  0  0  0  0  0  0  0  0  0  0
   -0.8494   12.6334   -8.7498 C   0  0  0  0  0  0  0  0  0  0  0  0
   -0.6200   13.5292   -7.5519 C   0  0  0  0  0  0  0  0  0  0  0  0
    0.3824   13.0914   -6.4453 C   0  0  0  0  0  0  0  0  0  0  0  0
    0.1024   13.9671   -5.1979 C   0  0  0  0  0  0  0  0  0  0  0  0
    1.8349   13.3791   -6.8693 C   0  0  0  0  0  0  0  0  0  0  0  0
    0.2817   11.5973   -6.0697 C   0  0  0  0  0  0  0  0  0  0  0  0
   -0.8664   11.3375   -5.2529 O   0  0  0  0  0  0  0  0  0  0  0  0
   -0.9050   10.0580   -4.7723 C   0  0  0  0  0  0  0  0  0  0  0  0
   -1.9892    9.9322   -3.7017 C   0  0  1  0  0  0  0  0  0  0  0  0
   -2.4968    8.5550   -3.6650 N   0  0  0  0  0  0  0  0  0  0  0  0
   -3.4984    8.3998   -2.6868 N   0  0  0  0  0  0  0  0  0  0  0  0
   -4.8405    8.1240   -2.9561 C   0  0  0  0  0  0  0  0  0  0  0  0
   -5.3483    8.4207   -4.3837 C   0  0  1  0  0  0  0  0  0  0  0  0
   -6.4231    7.4930   -4.7245 N   0  0  0  0  0  0  0  0  0  0  0  0
   -6.1210    6.2482   -5.2445 C   0  0  0  0  0  0  0  0  0  0  0  0
   -7.3411    5.3075   -5.3917 C   0  0  2  0  0  0  0  0  0  0  0  0
   -6.9788    3.8264   -5.1158 C   0  0  0  0  0  0  0  0  0  0  0  0
   -8.1967    2.9134   -5.3235 C   0  0  0  0  0  0  0  0  0  0  0  0
   -6.4628    3.6398   -3.6805 C   0  0  0  0  0  0  0  0  0  0  0  0
   -7.9363    5.5133   -6.7396 N   0  0  0  0  0  0  0  0  0  0  0  0
   -9.0829    6.3169   -6.8184 C   0  0  0  0  0  0  0  0  0  0  0  0
   -9.7572    6.5164   -8.1997 C   0  0  0  0  0  0  0  0  0  0  0  0
  -10.7921    7.6529   -8.1296 C   0  0  0  0  0  0  0  0  0  0  0  0
  -11.5727    7.7830   -9.4340 C   0  0  0  0  0  0  0  0  0  0  0  0
  -12.1414    6.4955   -9.8179 N   0  0  0  0  0  0  0  0  0  0  0  0
  -13.4788    6.2693  -10.1125 C   0  0  0  0  0  0  0  0  0  0  0  0
  -14.4418    7.3253   -9.8902 C   0  0  0  0  0  0  0  0  0  0  0  0
  -15.3105    8.1296   -9.6741 C   0  0  0  0  0  0  0  0  0  0  0  0
  -16.4517    9.0401   -9.3751 C   0  0  0  0  0  0  0  0  0  0  0  0
  -16.1058    9.8532   -8.1793 N   0  0  0  0  0  0  0  0  0  0  0  0
  -16.0492    9.0812   -6.9321 C   0  0  0  0  0  0  0  0  0  0  0  0
  -16.9645   11.0254   -7.9792 C   0  0  0  0  0  0  0  0  0  0  0  0
  -17.7127    8.1691   -9.1865 C   0  0  0  0  0  0  0  0  0  0  0  0
  -16.6520    9.9234  -10.6303 C   0  0  0  0  0  0  0  0  0  0  0  0
  -13.9107    5.1959  -10.5221 O   0  0  0  0  0  0  0  0  0  0  0  0
  -11.1890    5.4062   -9.9516 C   0  0  0  0  0  0  0  0  0  0  0  0
  -10.4357    5.2105   -8.6402 C   0  0  0  0  0  0  0  0  0  0  0  0
   -9.5951    6.7904   -5.7993 O   0  0  0  0  0  0  0  0  0  0  0  0
   -7.0628    5.3030   -7.8975 C   0  0  0  0  0  0  0  0  0  0  0  0
   -4.9988    5.9643   -5.6585 O   0  0  0  0  0  0  0  0  0  0  0  0
   -5.8693    9.8625   -4.4103 C   0  0  0  0  0  0  0  0  0  0  0  0
   -5.5132   10.6740   -5.6656 C   0  0  1  0  0  0  0  0  0  0  0  0
   -5.6855    9.9211   -7.0050 C   0  0  0  0  0  0  0  0  0  0  0  0
   -5.5761   10.8341   -8.1569 N   0  0  0  0  0  0  0  0  0  0  0  0
   -6.2239   12.1508   -7.9796 C   0  0  0  0  0  0  0  0  0  0  0  0
   -7.0842   12.1733   -6.7128 C   0  0  0  0  0  0  0  0  0  0  0  0
   -6.2853   11.8992   -5.5575 O   0  0  0  0  0  0  0  0  0  0  0  0
   -5.6378    7.7780   -2.0757 O   0  0  0  0  0  0  0  0  0  0  0  0
   -3.0076    8.5639   -1.3185 C   0  0  0  0  0  0  0  0  0  0  0  0
   -2.3850    9.9589   -1.1811 C   0  0  0  0  0  0  0  0  0  0  0  0
   -1.3941   10.2588   -2.3214 C   0  0  0  0  0  0  0  0  0  0  0  0
   -0.1492    9.1596   -5.1203 O   0  0  0  0  0  0  0  0  0  0  0  0
   -2.0396   11.8415   -8.9540 C   0  0  0  0  0  0  0  0  0  0  0  0
   -1.9284   11.2117  -10.1903 C   0  0  0  0  0  0  0  0  0  0  0  0
   -2.9346   10.3711  -10.6937 C   0  0  0  0  0  0  0  0  0  0  0  0
   -4.1152   10.2362   -9.9588 C   0  0  0  0  0  0  0  0  0  0  0  0
   -4.3047   10.9025   -8.7504 C   0  0  0  0  0  0  0  0  0  0  0  0
   -3.2418   11.6614   -8.2224 C   0  0  0  0  0  0  0  0  0  0  0  0
   -8.8452    6.8732   -9.1588 F   0  0  0  0  0  0  0  0  0  0  0  0
   -1.6629   14.9600   -9.9934 H   0  0  0  0  0  0  0  0  0  0  0  0
   -0.4416   16.2176   -9.6365 H   0  0  0  0  0  0  0  0  0  0  0  0
   -1.7259   16.4889  -10.8196 H   0  0  0  0  0  0  0  0  0  0  0  0
    0.2052   16.0623  -12.1203 H   0  0  0  0  0  0  0  0  0  0  0  0
   -2.4811   15.6174  -12.8155 H   0  0  0  0  0  0  0  0  0  0  0  0
   -1.1033   15.7257  -13.9626 H   0  0  0  0  0  0  0  0  0  0  0  0
   -2.1958   14.3275  -13.9980 H   0  0  0  0  0  0  0  0  0  0  0  0
    4.3309   14.9650  -11.5468 H   0  0  0  0  0  0  0  0  0  0  0  0
    4.4848   12.7511  -10.4008 H   0  0  0  0  0  0  0  0  0  0  0  0
    2.3841   11.6559   -9.6618 H   0  0  0  0  0  0  0  0  0  0  0  0
   -1.1496   11.2205  -12.7385 H   0  0  0  0  0  0  0  0  0  0  0  0
    0.4264   11.9356  -12.4632 H   0  0  0  0  0  0  0  0  0  0  0  0
    1.2235    9.7884  -11.3884 H   0  0  0  0  0  0  0  0  0  0  0  0
   -0.3447    9.0522  -11.7449 H   0  0  0  0  0  0  0  0  0  0  0  0
    0.7097    9.5660  -13.0694 H   0  0  0  0  0  0  0  0  0  0  0  0
   -0.3267   14.5225   -7.9178 H   0  0  0  0  0  0  0  0  0  0  0  0
   -1.5986   13.6954   -7.0818 H   0  0  0  0  0  0  0  0  0  0  0  0
    0.7601   13.6918   -4.3642 H   0  0  0  0  0  0  0  0  0  0  0  0
    0.2672   15.0296   -5.4150 H   0  0  0  0  0  0  0  0  0  0  0  0
   -0.9310   13.8608   -4.8508 H   0  0  0  0  0  0  0  0  0  0  0  0
    2.5133   13.3381   -6.0057 H   0  0  0  0  0  0  0  0  0  0  0  0
    2.1974   12.6294   -7.5746 H   0  0  0  0  0  0  0  0  0  0  0  0
    1.9429   14.3754   -7.3171 H   0  0  0  0  0  0  0  0  0  0  0  0
    0.2562   10.9591   -6.9596 H   0  0  0  0  0  0  0  0  0  0  0  0
    1.1727   11.3175   -5.4897 H   0  0  0  0  0  0  0  0  0  0  0  0
   -2.8079   10.6178   -3.9500 H   0  0  0  0  0  0  0  0  0  0  0  0
   -2.7046    8.1568   -4.5823 H   0  0  0  0  0  0  0  0  0  0  0  0
   -4.5462    8.2804   -5.1061 H   0  0  0  0  0  0  0  0  0  0  0  0
   -7.2665    7.5473   -4.1563 H   0  0  0  0  0  0  0  0  0  0  0  0
   -8.0733    5.5918   -4.6255 H   0  0  0  0  0  0  0  0  0  0  0  0
   -6.1814    3.4899   -5.7918 H   0  0  0  0  0  0  0  0  0  0  0  0
   -9.0454    3.2450   -4.7150 H   0  0  0  0  0  0  0  0  0  0  0  0
   -8.5111    2.9014   -6.3707 H   0  0  0  0  0  0  0  0  0  0  0  0
   -7.9627    1.8832   -5.0414 H   0  0  0  0  0  0  0  0  0  0  0  0
   -7.2227    3.9227   -2.9457 H   0  0  0  0  0  0  0  0  0  0  0  0
   -6.1925    2.5950   -3.5034 H   0  0  0  0  0  0  0  0  0  0  0  0
   -5.5698    4.2430   -3.4946 H   0  0  0  0  0  0  0  0  0  0  0  0
  -11.5011    7.4731   -7.3087 H   0  0  0  0  0  0  0  0  0  0  0  0
  -10.2856    8.6021   -7.9196 H   0  0  0  0  0  0  0  0  0  0  0  0
  -12.3428    8.5524   -9.3255 H   0  0  0  0  0  0  0  0  0  0  0  0
  -10.9101    8.1035  -10.2470 H   0  0  0  0  0  0  0  0  0  0  0  0
  -15.6035    9.6879   -6.1351 H   0  0  0  0  0  0  0  0  0  0  0  0
  -17.0424    8.7662   -6.5909 H   0  0  0  0  0  0  0  0  0  0  0  0
  -15.4175    8.1927   -7.0228 H   0  0  0  0  0  0  0  0  0  0  0  0
  -16.7100   11.5405   -7.0440 H   0  0  0  0  0  0  0  0  0  0  0  0
  -16.8135   11.7662   -8.7701 H   0  0  0  0  0  0  0  0  0  0  0  0
  -18.0288   10.7642   -7.9363 H   0  0  0  0  0  0  0  0  0  0  0  0
  -17.5533    7.3719   -8.4541 H   0  0  0  0  0  0  0  0  0  0  0  0
  -18.5764    8.7586   -8.8658 H   0  0  0  0  0  0  0  0  0  0  0  0
  -17.9988    7.6769  -10.1246 H   0  0  0  0  0  0  0  0  0  0  0  0
  -17.5702   10.5200  -10.5667 H   0  0  0  0  0  0  0  0  0  0  0  0
  -15.8112   10.6107  -10.7772 H   0  0  0  0  0  0  0  0  0  0  0  0
  -16.7337    9.3140  -11.5418 H   0  0  0  0  0  0  0  0  0  0  0  0
  -11.6883    4.4736  -10.2292 H   0  0  0  0  0  0  0  0  0  0  0  0
  -10.5014    5.6623  -10.7638 H   0  0  0  0  0  0  0  0  0  0  0  0
   -9.7109    4.4032   -8.7756 H   0  0  0  0  0  0  0  0  0  0  0  0
  -11.1351    4.8765   -7.8610 H   0  0  0  0  0  0  0  0  0  0  0  0
   -6.3119    4.5361   -7.6901 H   0  0  0  0  0  0  0  0  0  0  0  0
   -7.6328    4.9704   -8.7631 H   0  0  0  0  0  0  0  0  0  0  0  0
   -6.5683    6.2479   -8.1394 H   0  0  0  0  0  0  0  0  0  0  0  0
   -6.9600    9.8814   -4.2601 H   0  0  0  0  0  0  0  0  0  0  0  0
   -5.4703   10.4300   -3.5534 H   0  0  0  0  0  0  0  0  0  0  0  0
   -4.4658   10.9799   -5.5767 H   0  0  0  0  0  0  0  0  0  0  0  0
   -4.9721    9.0936   -7.0944 H   0  0  0  0  0  0  0  0  0  0  0  0
   -6.6843    9.4664   -7.0417 H   0  0  0  0  0  0  0  0  0  0  0  0
   -5.4898   12.9620   -7.9025 H   0  0  0  0  0  0  0  0  0  0  0  0
   -6.8482   12.3573   -8.8581 H   0  0  0  0  0  0  0  0  0  0  0  0
   -7.5271   13.1648   -6.5823 H   0  0  0  0  0  0  0  0  0  0  0  0
   -7.9057   11.4508   -6.7624 H   0  0  0  0  0  0  0  0  0  0  0  0
   -3.8170    8.4409   -0.5920 H   0  0  0  0  0  0  0  0  0  0  0  0
   -2.2609    7.7830   -1.1306 H   0  0  0  0  0  0  0  0  0  0  0  0
   -3.1844   10.7116   -1.2072 H   0  0  0  0  0  0  0  0  0  0  0  0
   -1.8817   10.0546   -0.2120 H   0  0  0  0  0  0  0  0  0  0  0  0
   -0.4779    9.6732   -2.1576 H   0  0  0  0  0  0  0  0  0  0  0  0
   -1.0943   11.3129   -2.2792 H   0  0  0  0  0  0  0  0  0  0  0  0
   -2.8367    9.8735  -11.6525 H   0  0  0  0  0  0  0  0  0  0  0  0
   -4.9262    9.6380  -10.3676 H   0  0  0  0  0  0  0  0  0  0  0  0
   -3.3601   12.1798   -7.2775 H   0  0  0  0  0  0  0  0  0  0  0  0
  1  2  1  0
  2  3  1  0
  2  5  1  0
  3  4  1  0
  5  6  2  0
  5 10  1  0
  6  7  1  0
  7  8  2  0
  8  9  1  0
  9 10  2  0
 10 11  1  0
 11 12  1  0
 11 15  2  0
 12 13  1  0
 12 68  1  0
 13 14  1  0
 15 16  1  0
 15 67  1  0
 16 17  1  0
 17 18  1  0
 17 19  1  0
 17 20  1  0
 20 21  1  0
 21 22  1  0
 22 23  1  0
 22 66  2  0
 23 24  1  0
 23 65  1  0
 24 25  1  0
 25 26  1  0
 25 63  1  0
 26 27  1  0
 26 62  2  0
 27 28  1  0
 27 55  1  0
 28 29  1  0
 29 30  1  0
 29 54  2  0
 30 31  1  0
 30 34  1  0
 31 32  1  0
 31 33  1  0
 34 35  1  0
 34 53  1  0
 35 36  1  0
 35 52  2  0
 36 37  1  0
 36 51  1  0
 36 73  1  0
 37 38  1  0
 38 39  1  0
 39 40  1  0
 39 50  1  0
 40 41  1  0
 40 49  2  0
 42 43  1  0
 43 44  1  0
 43 47  1  0
 43 48  1  0
 44 45  1  0
 44 46  1  0
 50 51  1  0
 55 56  1  0
 56 57  1  0
 56 61  1  0
 57 58  1  0
 58 59  1  0
 58 71  1  0
 59 60  1  0
 60 61  1  0
 63 64  1  0
 64 65  1  0
 67 68  2  0
 67 72  1  0
 68 69  1  0
 69 70  2  0
 70 71  1  0
 71 72  2  0
 41 42  3  0
  1 74  1  0
  1 75  1  0
  1 76  1  0
  2 77  1  6
  4 78  1  0
  4 79  1  0
  4 80  1  0
  7 81  1  0
  8 82  1  0
  9 83  1  0
 13 84  1  0
 13 85  1  0
 14 86  1  0
 14 87  1  0
 14 88  1  0
 16 89  1  0
 16 90  1  0
 18 91  1  0
 18 92  1  0
 18 93  1  0
 19 94  1  0
 19 95  1  0
 19 96  1  0
 20 97  1  0
 20 98  1  0
 23 99  1  6
 24100  1  0
 27101  1  6
 28102  1  0
 30103  1  1
 31104  1  0
 32105  1  0
 32106  1  0
 32107  1  0
 33108  1  0
 33109  1  0
 33110  1  0
 37111  1  0
 37112  1  0
 38113  1  0
 38114  1  0
 45115  1  0
 45116  1  0
 45117  1  0
 46118  1  0
 46119  1  0
 46120  1  0
 47121  1  0
 47122  1  0
 47123  1  0
 48124  1  0
 48125  1  0
 48126  1  0
 50127  1  0
 50128  1  0
 51129  1  0
 51130  1  0
 53131  1  0
 53132  1  0
 53133  1  0
 55134  1  0
 55135  1  0
 56136  1  1
 57137  1  0
 57138  1  0
 59139  1  0
 59140  1  0
 60141  1  0
 60142  1  0
 63143  1  0
 63144  1  0
 64145  1  0
 64146  1  0
 65147  1  0
 65148  1  0
 69149  1  0
 70150  1  0
 72151  1  0
M  END
$$$$
