mol_bioactive_6
     RDKit          3D

151157  0  0  0  0  0  0  0  0999 V2000
    0.0587   15.8501  -12.1830 C   0  0  0  0  0  0  0  0  0  0  0  0
    0.0992   15.3193  -10.7465 C   0  0  2  0  0  0  0  0  0  0  0  0
    0.1426   16.4113   -9.8110 O   0  0  0  0  0  0  0  0  0  0  0  0
   -1.1206   17.0202   -9.5938 C   0  0  0  0  0  0  0  0  0  0  0  0
    1.3308   14.4453  -10.5290 C   0  0  0  0  0  0  0  0  0  0  0  0
    2.5258   14.9827  -10.9254 N   0  0  0  0  0  0  0  0  0  0  0  0
    3.6452   14.2470  -10.7649 C   0  0  0  0  0  0  0  0  0  0  0  0
    3.6517   12.9713  -10.2416 C   0  0  0  0  0  0  0  0  0  0  0  0
    2.4377   12.4207   -9.8450 C   0  0  0  0  0  0  0  0  0  0  0  0
    1.2493   13.1576   -9.9706 C   0  0  0  0  0  0  0  0  0  0  0  0
   -0.0157   12.5246   -9.5691 C   0  0  0  0  0  0  0  0  0  0  0  0
   -0.6246   11.5389  -10.3344 N   0  0  0  0  0  0  0  0  0  0  0  0
   -0.1121   10.9850  -11.5869 C   0  0  0  0  0  0  0  0  0  0  0  0
    0.4842    9.5985  -11.4123 C   0  0  0  0  0  0  0  0  0  0  0  0
   -0.8484   12.7829   -8.4785 C   0  0  0  0  0  0  0  0  0  0  0  0
   -0.6634   13.7842   -7.3587 C   0  0  0  0  0  0  0  0  0  0  0  0
    0.3655   13.4812   -6.2307 C   0  0  0  0  0  0  0  0  0  0  0  0
    0.0118   14.3921   -5.0276 C   0  0  0  0  0  0  0  0  0  0  0  0
    1.7934   13.8579   -6.6648 C   0  0  0  0  0  0  0  0  0  0  0  0
    0.3728   12.0021   -5.7862 C   0  0  0  0  0  0  0  0  0  0  0  0
   -0.7833   11.6775   -5.0034 O   0  0  0  0  0  0  0  0  0  0  0  0
   -0.8038   10.3745   -4.5900 C   0  0  0  0  0  0  0  0  0  0  0  0
   -1.8912   10.1733   -3.5304 C   0  0  1  0  0  0  0  0  0  0  0  0
   -2.4801    8.8321   -3.6802 N   0  0  0  0  0  0  0  0  0  0  0  0
   -3.4490    8.5750   -2.6824 N   0  0  0  0  0  0  0  0  0  0  0  0
   -4.7763    8.2089   -2.9322 C   0  0  0  0  0  0  0  0  0  0  0  0
   -5.3582    8.5761   -4.3158 C   0  0  1  0  0  0  0  0  0  0  0  0
   -6.4447    7.6686   -4.6603 N   0  0  0  0  0  0  0  0  0  0  0  0
   -6.1773    6.4645   -5.2788 C   0  0  0  0  0  0  0  0  0  0  0  0
   -7.4011    5.5318   -5.4217 C   0  0  2  0  0  0  0  0  0  0  0  0
   -7.0242    4.0679   -5.0717 C   0  0  0  0  0  0  0  0  0  0  0  0
   -8.1858    3.1053   -5.3410 C   0  0  0  0  0  0  0  0  0  0  0  0
   -6.6212    3.9587   -3.5921 C   0  0  0  0  0  0  0  0  0  0  0  0
   -7.9759    5.7160   -6.7798 N   0  0  0  0  0  0  0  0  0  0  0  0
   -8.9527    6.7128   -6.9174 C   0  0  0  0  0  0  0  0  0  0  0  0
   -9.6584    6.8808   -8.2881 C   0  0  0  0  0  0  0  0  0  0  0  0
  -10.5437    8.1374   -8.2955 C   0  0  0  0  0  0  0  0  0  0  0  0
  -11.3737    8.2489   -9.5671 C   0  0  0  0  0  0  0  0  0  0  0  0
  -12.0921    7.0091   -9.8555 N   0  0  0  0  0  0  0  0  0  0  0  0
  -13.3317    6.9709  -10.4936 C   0  0  0  0  0  0  0  0  0  0  0  0
  -14.1342    8.1752  -10.5447 C   0  0  0  0  0  0  0  0  0  0  0  0
  -14.8656    9.1303  -10.5572 C   0  0  0  0  0  0  0  0  0  0  0  0
  -15.8308   10.2564  -10.5429 C   0  0  0  0  0  0  0  0  0  0  0  0
  -16.1809   10.6771   -9.1558 N   0  0  0  0  0  0  0  0  0  0  0  0
  -16.7750    9.6165   -8.3327 C   0  0  0  0  0  0  0  0  0  0  0  0
  -15.0847   11.3094   -8.4125 C   0  0  0  0  0  0  0  0  0  0  0  0
  -17.1167    9.8259  -11.2899 C   0  0  0  0  0  0  0  0  0  0  0  0
  -15.2295   11.4337  -11.3462 C   0  0  0  0  0  0  0  0  0  0  0  0
  -13.8126    5.9506  -10.9794 O   0  0  0  0  0  0  0  0  0  0  0  0
  -11.2864    5.7976   -9.8690 C   0  0  0  0  0  0  0  0  0  0  0  0
  -10.5120    5.6402   -8.5712 C   0  0  0  0  0  0  0  0  0  0  0  0
   -9.3023    7.3929   -5.9459 O   0  0  0  0  0  0  0  0  0  0  0  0
   -7.1367    5.3388   -7.9180 C   0  0  0  0  0  0  0  0  0  0  0  0
   -5.0782    6.2068   -5.7606 O   0  0  0  0  0  0  0  0  0  0  0  0
   -5.8746   10.0172   -4.2670 C   0  0  0  0  0  0  0  0  0  0  0  0
   -5.5060   10.8578   -5.4916 C   0  0  1  0  0  0  0  0  0  0  0  0
   -5.8020   10.1705   -6.8486 C   0  0  0  0  0  0  0  0  0  0  0  0
   -5.6359   11.1189   -7.9691 N   0  0  0  0  0  0  0  0  0  0  0  0
   -6.2410   12.4498   -7.7396 C   0  0  0  0  0  0  0  0  0  0  0  0
   -7.0171   12.4911   -6.4163 C   0  0  0  0  0  0  0  0  0  0  0  0
   -6.1759   12.1326   -5.3114 O   0  0  0  0  0  0  0  0  0  0  0  0
   -5.5107    7.7293   -2.0601 O   0  0  0  0  0  0  0  0  0  0  0  0
   -2.8909    8.5198   -1.3290 C   0  0  0  0  0  0  0  0  0  0  0  0
   -2.2177    9.8568   -1.0176 C   0  0  0  0  0  0  0  0  0  0  0  0
   -1.2496   10.2758   -2.1344 C   0  0  0  0  0  0  0  0  0  0  0  0
   -0.0222    9.5112   -4.9694 O   0  0  0  0  0  0  0  0  0  0  0  0
   -2.0462   12.0041   -8.6799 C   0  0  0  0  0  0  0  0  0  0  0  0
   -1.8669   11.2281   -9.8211 C   0  0  0  0  0  0  0  0  0  0  0  0
   -2.8555   10.3431  -10.2820 C   0  0  0  0  0  0  0  0  0  0  0  0
   -4.0821   10.3133   -9.6129 C   0  0  0  0  0  0  0  0  0  0  0  0
   -4.3391   11.1300   -8.5097 C   0  0  0  0  0  0  0  0  0  0  0  0
   -3.2933   11.9322   -8.0145 C   0  0  0  0  0  0  0  0  0  0  0  0
   -8.7527    7.0243   -9.3066 F   0  0  0  0  0  0  0  0  0  0  0  0
   -0.8911   16.3566  -12.3824 H   0  0  0  0  0  0  0  0  0  0  0  0
    0.8468   16.5922  -12.3565 H   0  0  0  0  0  0  0  0  0  0  0  0
    0.1706   15.0430  -12.9138 H   0  0  0  0  0  0  0  0  0  0  0  0
   -0.8119   14.7357  -10.5822 H   0  0  0  0  0  0  0  0  0  0  0  0
   -1.8560   16.2827   -9.2569 H   0  0  0  0  0  0  0  0  0  0  0  0
   -1.0026   17.7698   -8.8072 H   0  0  0  0  0  0  0  0  0  0  0  0
   -1.4791   17.5191  -10.4984 H   0  0  0  0  0  0  0  0  0  0  0  0
    4.5648   14.7283  -11.0822 H   0  0  0  0  0  0  0  0  0  0  0  0
    4.5783   12.4176  -10.1324 H   0  0  0  0  0  0  0  0  0  0  0  0
    2.4181   11.4222   -9.4195 H   0  0  0  0  0  0  0  0  0  0  0  0
   -0.9437   10.9642  -12.3008 H   0  0  0  0  0  0  0  0  0  0  0  0
    0.6300   11.6717  -12.0039 H   0  0  0  0  0  0  0  0  0  0  0  0
    1.2729    9.5932  -10.6539 H   0  0  0  0  0  0  0  0  0  0  0  0
   -0.2772    8.8747  -11.1025 H   0  0  0  0  0  0  0  0  0  0  0  0
    0.9142    9.2497  -12.3571 H   0  0  0  0  0  0  0  0  0  0  0  0
   -0.4261   14.7574   -7.8059 H   0  0  0  0  0  0  0  0  0  0  0  0
   -1.6485   13.9393   -6.8934 H   0  0  0  0  0  0  0  0  0  0  0  0
    0.7066   14.2327   -4.1946 H   0  0  0  0  0  0  0  0  0  0  0  0
    0.0670   15.4497   -5.3097 H   0  0  0  0  0  0  0  0  0  0  0  0
   -1.0003   14.2045   -4.6542 H   0  0  0  0  0  0  0  0  0  0  0  0
    2.4683   13.8930   -5.8005 H   0  0  0  0  0  0  0  0  0  0  0  0
    2.2092   13.1180   -7.3473 H   0  0  0  0  0  0  0  0  0  0  0  0
    1.8243   14.8438   -7.1437 H   0  0  0  0  0  0  0  0  0  0  0  0
    0.4470   11.3291   -6.6488 H   0  0  0  0  0  0  0  0  0  0  0  0
    1.2558   11.8220   -5.1550 H   0  0  0  0  0  0  0  0  0  0  0  0
   -2.6724   10.9341   -3.6628 H   0  0  0  0  0  0  0  0  0  0  0  0
   -2.7587    8.6206   -4.6387 H   0  0  0  0  0  0  0  0  0  0  0  0
   -4.5852    8.4590   -5.0740 H   0  0  0  0  0  0  0  0  0  0  0  0
   -7.2856    7.7163   -4.0947 H   0  0  0  0  0  0  0  0  0  0  0  0
   -8.1600    5.8415   -4.6903 H   0  0  0  0  0  0  0  0  0  0  0  0
   -6.1609    3.7417   -5.6644 H   0  0  0  0  0  0  0  0  0  0  0  0
   -9.0886    3.4098   -4.8008 H   0  0  0  0  0  0  0  0  0  0  0  0
   -8.4249    3.0570   -6.4086 H   0  0  0  0  0  0  0  0  0  0  0  0
   -7.9294    2.0897   -5.0180 H   0  0  0  0  0  0  0  0  0  0  0  0
   -7.4485    4.2412   -2.9322 H   0  0  0  0  0  0  0  0  0  0  0  0
   -6.3303    2.9319   -3.3442 H   0  0  0  0  0  0  0  0  0  0  0  0
   -5.7669    4.6011   -3.3584 H   0  0  0  0  0  0  0  0  0  0  0  0
  -11.2209    8.1221   -7.4332 H   0  0  0  0  0  0  0  0  0  0  0  0
   -9.9169    9.0322   -8.1967 H   0  0  0  0  0  0  0  0  0  0  0  0
  -12.0653    9.0907   -9.4719 H   0  0  0  0  0  0  0  0  0  0  0  0
  -10.7329    8.4592  -10.4309 H   0  0  0  0  0  0  0  0  0  0  0  0
  -17.1164   10.0292   -7.3756 H   0  0  0  0  0  0  0  0  0  0  0  0
  -17.6661    9.1846   -8.7962 H   0  0  0  0  0  0  0  0  0  0  0  0
  -16.0662    8.8111   -8.1100 H   0  0  0  0  0  0  0  0  0  0  0  0
  -15.4204   11.6069   -7.4110 H   0  0  0  0  0  0  0  0  0  0  0  0
  -14.2239   10.6436   -8.2917 H   0  0  0  0  0  0  0  0  0  0  0  0
  -14.7513   12.2357   -8.8919 H   0  0  0  0  0  0  0  0  0  0  0  0
  -17.4833    8.8445  -10.9675 H   0  0  0  0  0  0  0  0  0  0  0  0
  -17.9220   10.5580  -11.1441 H   0  0  0  0  0  0  0  0  0  0  0  0
  -16.9503    9.7590  -12.3690 H   0  0  0  0  0  0  0  0  0  0  0  0
  -14.2400   11.7280  -10.9789 H   0  0  0  0  0  0  0  0  0  0  0  0
  -15.0941   11.1596  -12.4004 H   0  0  0  0  0  0  0  0  0  0  0  0
  -15.8853   12.3122  -11.3164 H   0  0  0  0  0  0  0  0  0  0  0  0
  -11.9156    4.9143  -10.0143 H   0  0  0  0  0  0  0  0  0  0  0  0
  -10.6083    5.8557  -10.7288 H   0  0  0  0  0  0  0  0  0  0  0  0
   -9.8982    4.7373   -8.6374 H   0  0  0  0  0  0  0  0  0  0  0  0
  -11.2148    5.4861   -7.7426 H   0  0  0  0  0  0  0  0  0  0  0  0
   -6.5283    4.4619   -7.6813 H   0  0  0  0  0  0  0  0  0  0  0  0
   -7.7399    5.0839   -8.7904 H   0  0  0  0  0  0  0  0  0  0  0  0
   -6.4873    6.1827   -8.1766 H   0  0  0  0  0  0  0  0  0  0  0  0
   -6.9662   10.0379   -4.1324 H   0  0  0  0  0  0  0  0  0  0  0  0
   -5.4814   10.5440   -3.3827 H   0  0  0  0  0  0  0  0  0  0  0  0
   -4.4335   11.0838   -5.4396 H   0  0  0  0  0  0  0  0  0  0  0  0
   -5.1773    9.2829   -6.9961 H   0  0  0  0  0  0  0  0  0  0  0  0
   -6.8406    9.8178   -6.8642 H   0  0  0  0  0  0  0  0  0  0  0  0
   -5.4914   13.2511   -7.7153 H   0  0  0  0  0  0  0  0  0  0  0  0
   -6.9219   12.6686   -8.5716 H   0  0  0  0  0  0  0  0  0  0  0  0
   -7.3850   13.5064   -6.2365 H   0  0  0  0  0  0  0  0  0  0  0  0
   -7.8895   11.8291   -6.4316 H   0  0  0  0  0  0  0  0  0  0  0  0
   -3.6728    8.3101   -0.5924 H   0  0  0  0  0  0  0  0  0  0  0  0
   -2.1679    7.6959   -1.2955 H   0  0  0  0  0  0  0  0  0  0  0  0
   -2.9884   10.6310   -0.9105 H   0  0  0  0  0  0  0  0  0  0  0  0
   -1.6859    9.7976   -0.0626 H   0  0  0  0  0  0  0  0  0  0  0  0
   -0.3555    9.6390   -2.0850 H   0  0  0  0  0  0  0  0  0  0  0  0
   -0.9038   11.3014   -1.9554 H   0  0  0  0  0  0  0  0  0  0  0  0
   -2.7059    9.7265  -11.1612 H   0  0  0  0  0  0  0  0  0  0  0  0
   -4.8717    9.6655   -9.9880 H   0  0  0  0  0  0  0  0  0  0  0  0
   -3.4546   12.5445   -7.1337 H   0  0  0  0  0  0  0  0  0  0  0  0
  1  2  1  0
  2  3  1  0
  2  5  1  0
  3  4  1  0
  5  6  2  0
  5 10  1  0
  6  7  1  0
  7  8  2  0
  8  9  1  0
  9 10  2  0
 10 11  1  0
 11 12  1  0
 11 15  2  0
 12 13  1  0
 12 68  1  0
 13 14  1  0
 15 16  1  0
 15 67  1  0
 16 17  1  0
 17 18  1  0
 17 19  1  0
 17 20  1  0
 20 21  1  0
 21 22  1  0
 22 23  1  0
 22 66  2  0
 23 24  1  0
 23 65  1  0
 24 25  1  0
 25 26  1  0
 25 63  1  0
 26 27  1  0
 26 62  2  0
 27 28  1  0
 27 55  1  0
 28 29  1  0
 29 30  1  0
 29 54  2  0
 30 31  1  0
 30 34  1  0
 31 32  1  0
 31 33  1  0
 34 35  1  0
 34 53  1  0
 35 36  1  0
 35 52  2  0
 36 37  1  0
 36 51  1  0
 36 73  1  0
 37 38  1  0
 38 39  1  0
 39 40  1  0
 39 50  1  0
 40 41  1  0
 40 49  2  0
 42 43  1  0
 43 44  1  0
 43 47  1  0
 43 48  1  0
 44 45  1  0
 44 46  1  0
 50 51  1  0
 55 56  1  0
 56 57  1  0
 56 61  1  0
 57 58  1  0
 58 59  1  0
 58 71  1  0
 59 60  1  0
 60 61  1  0
 63 64  1  0
 64 65  1  0
 67 68  2  0
 67 72  1  0
 68 69  1  0
 69 70  2  0
 70 71  1  0
 71 72  2  0
 41 42  3  0
  1 74  1  0
  1 75  1  0
  1 76  1  0
  2 77  1  1
  4 78  1  0
  4 79  1  0
  4 80  1  0
  7 81  1  0
  8 82  1  0
  9 83  1  0
 13 84  1  0
 13 85  1  0
 14 86  1  0
 14 87  1  0
 14 88  1  0
 16 89  1  0
 16 90  1  0
 18 91  1  0
 18 92  1  0
 18 93  1  0
 19 94  1  0
 19 95  1  0
 19 96  1  0
 20 97  1  0
 20 98  1  0
 23 99  1  1
 24100  1  0
 27101  1  6
 28102  1  0
 30103  1  1
 31104  1  0
 32105  1  0
 32106  1  0
 32107  1  0
 33108  1  0
 33109  1  0
 33110  1  0
 37111  1  0
 37112  1  0
 38113  1  0
 38114  1  0
 45115  1  0
 45116  1  0
 45117  1  0
 46118  1  0
 46119  1  0
 46120  1  0
 47121  1  0
 47122  1  0
 47123  1  0
 48124  1  0
 48125  1  0
 48126  1  0
 50127  1  0
 50128  1  0
 51129  1  0
 51130  1  0
 53131  1  0
 53132  1  0
 53133  1  0
 55134  1  0
 55135  1  0
 56136  1  1
 57137  1  0
 57138  1  0
 59139  1  0
 59140  1  0
 60141  1  0
 60142  1  0
 63143  1  0
 63144  1  0
 64145  1  0
 64146  1  0
 65147  1  0
 65148  1  0
 69149  1  0
 70150  1  0
 72151  1  0
M  END
$$$$
