mol_bioactive_21
     RDKit          3D

151157  0  0  0  0  0  0  0  0999 V2000
   -0.0359   15.6356  -12.6172 C   0  0  0  0  0  0  0  0  0  0  0  0
   -0.0426   15.0441  -11.2034 C   0  0  2  0  0  0  0  0  0  0  0  0
   -0.0346   16.1013  -10.2317 O   0  0  0  0  0  0  0  0  0  0  0  0
   -1.3252   16.6365   -9.9777 C   0  0  0  0  0  0  0  0  0  0  0  0
    1.1766   14.1538  -10.9757 C   0  0  0  0  0  0  0  0  0  0  0  0
    2.3700   14.6289  -11.4435 N   0  0  0  0  0  0  0  0  0  0  0  0
    3.4711   13.8643  -11.2902 C   0  0  0  0  0  0  0  0  0  0  0  0
    3.4600   12.6175  -10.6977 C   0  0  0  0  0  0  0  0  0  0  0  0
    2.2482   12.1338  -10.2223 C   0  0  0  0  0  0  0  0  0  0  0  0
    1.0809   12.9023  -10.3392 C   0  0  0  0  0  0  0  0  0  0  0  0
   -0.1861   12.3410   -9.8519 C   0  0  0  0  0  0  0  0  0  0  0  0
   -0.8791   11.3620  -10.5489 N   0  0  0  0  0  0  0  0  0  0  0  0
   -0.4427   10.7107  -11.7812 C   0  0  0  0  0  0  0  0  0  0  0  0
    0.1283    9.3239  -11.5382 C   0  0  0  0  0  0  0  0  0  0  0  0
   -0.9533   12.6774   -8.7333 C   0  0  0  0  0  0  0  0  0  0  0  0
   -0.6487   13.6816   -7.6425 C   0  0  0  0  0  0  0  0  0  0  0  0
    0.3957   13.3135   -6.5461 C   0  0  0  0  0  0  0  0  0  0  0  0
    0.1663   14.2668   -5.3476 C   0  0  0  0  0  0  0  0  0  0  0  0
    1.8294   13.5648   -7.0463 C   0  0  0  0  0  0  0  0  0  0  0  0
    0.3076   11.8450   -6.0772 C   0  0  0  0  0  0  0  0  0  0  0  0
   -0.8210   11.6169   -5.2198 O   0  0  0  0  0  0  0  0  0  0  0  0
   -0.9261   10.3126   -4.8183 C   0  0  0  0  0  0  0  0  0  0  0  0
   -1.9968   10.1714   -3.7336 C   0  0  1  0  0  0  0  0  0  0  0  0
   -2.6082    8.8365   -3.8289 N   0  0  0  0  0  0  0  0  0  0  0  0
   -3.5786    8.6323   -2.8269 N   0  0  0  0  0  0  0  0  0  0  0  0
   -4.9094    8.2741   -3.0697 C   0  0  0  0  0  0  0  0  0  0  0  0
   -5.4846    8.6380   -4.4578 C   0  0  1  0  0  0  0  0  0  0  0  0
   -6.5569    7.7183   -4.8198 N   0  0  0  0  0  0  0  0  0  0  0  0
   -6.2401    6.4688   -5.3200 C   0  0  0  0  0  0  0  0  0  0  0  0
   -7.4536    5.5328   -5.5169 C   0  0  2  0  0  0  0  0  0  0  0  0
   -7.0858    4.0407   -5.3164 C   0  0  0  0  0  0  0  0  0  0  0  0
   -8.2982    3.1317   -5.5528 C   0  0  0  0  0  0  0  0  0  0  0  0
   -6.5665    3.7965   -3.8912 C   0  0  0  0  0  0  0  0  0  0  0  0
   -8.0217    5.8491   -6.8537 N   0  0  0  0  0  0  0  0  0  0  0  0
   -9.0716    6.7690   -6.9014 C   0  0  0  0  0  0  0  0  0  0  0  0
   -9.8408    6.9853   -8.2317 C   0  0  0  0  0  0  0  0  0  0  0  0
  -10.8900    8.0919   -8.0455 C   0  0  0  0  0  0  0  0  0  0  0  0
  -11.7667    8.2504   -9.2804 C   0  0  0  0  0  0  0  0  0  0  0  0
  -12.3385    6.9700   -9.6801 N   0  0  0  0  0  0  0  0  0  0  0  0
  -13.6586    6.7930  -10.0842 C   0  0  0  0  0  0  0  0  0  0  0  0
  -14.6072    7.8614   -9.8529 C   0  0  0  0  0  0  0  0  0  0  0  0
  -15.4314    8.7158   -9.6582 C   0  0  0  0  0  0  0  0  0  0  0  0
  -16.4814    9.7385   -9.4307 C   0  0  0  0  0  0  0  0  0  0  0  0
  -15.9700   10.9303   -8.6981 N   0  0  0  0  0  0  0  0  0  0  0  0
  -15.5783   10.6643   -7.3123 C   0  0  0  0  0  0  0  0  0  0  0  0
  -14.8905   11.6450   -9.3841 C   0  0  0  0  0  0  0  0  0  0  0  0
  -17.6487    9.0777   -8.6584 C   0  0  0  0  0  0  0  0  0  0  0  0
  -17.0562   10.1613  -10.8041 C   0  0  0  0  0  0  0  0  0  0  0  0
  -14.0787    5.7698  -10.6094 O   0  0  0  0  0  0  0  0  0  0  0  0
  -11.3813    5.9005   -9.9099 C   0  0  0  0  0  0  0  0  0  0  0  0
  -10.5163    5.6824   -8.6768 C   0  0  0  0  0  0  0  0  0  0  0  0
   -9.4254    7.3598   -5.8727 O   0  0  0  0  0  0  0  0  0  0  0  0
   -7.2774    5.3923   -8.0301 C   0  0  0  0  0  0  0  0  0  0  0  0
   -5.0986    6.1763   -5.6758 O   0  0  0  0  0  0  0  0  0  0  0  0
   -5.9944   10.0843   -4.3991 C   0  0  0  0  0  0  0  0  0  0  0  0
   -5.5375   10.9296   -5.5896 C   0  0  1  0  0  0  0  0  0  0  0  0
   -6.0455   10.3829   -6.9465 C   0  0  0  0  0  0  0  0  0  0  0  0
   -5.8314   11.3766   -8.0177 N   0  0  0  0  0  0  0  0  0  0  0  0
   -6.3080   12.7391   -7.6886 C   0  0  0  0  0  0  0  0  0  0  0  0
   -6.8560   12.8229   -6.2577 C   0  0  0  0  0  0  0  0  0  0  0  0
   -5.9282   12.2929   -5.3046 O   0  0  0  0  0  0  0  0  0  0  0  0
   -5.6451    7.8103   -2.1907 O   0  0  0  0  0  0  0  0  0  0  0  0
   -3.0191    8.6099   -1.4750 C   0  0  0  0  0  0  0  0  0  0  0  0
   -2.3029    9.9390   -1.2106 C   0  0  0  0  0  0  0  0  0  0  0  0
   -1.3371   10.3018   -2.3474 C   0  0  0  0  0  0  0  0  0  0  0  0
   -0.2261    9.3994   -5.2387 O   0  0  0  0  0  0  0  0  0  0  0  0
   -2.2137   11.9898   -8.8756 C   0  0  0  0  0  0  0  0  0  0  0  0
   -2.1242   11.1589   -9.9889 C   0  0  0  0  0  0  0  0  0  0  0  0
   -3.1860   10.3307  -10.3846 C   0  0  0  0  0  0  0  0  0  0  0  0
   -4.3917   10.4162   -9.6825 C   0  0  0  0  0  0  0  0  0  0  0  0
   -4.5574   11.2877   -8.6065 C   0  0  0  0  0  0  0  0  0  0  0  0
   -3.4428   12.0320   -8.1719 C   0  0  0  0  0  0  0  0  0  0  0  0
   -9.0067    7.4040   -9.2357 F   0  0  0  0  0  0  0  0  0  0  0  0
   -0.9583   16.1929  -12.8127 H   0  0  0  0  0  0  0  0  0  0  0  0
    0.7885   16.3465  -12.7507 H   0  0  0  0  0  0  0  0  0  0  0  0
    0.0542   14.8529  -13.3776 H   0  0  0  0  0  0  0  0  0  0  0  0
   -0.9608   14.4525  -11.0997 H   0  0  0  0  0  0  0  0  0  0  0  0
   -1.9946   15.8628   -9.5866 H   0  0  0  0  0  0  0  0  0  0  0  0
   -1.2280   17.4201   -9.2200 H   0  0  0  0  0  0  0  0  0  0  0  0
   -1.7560   17.0795  -10.8801 H   0  0  0  0  0  0  0  0  0  0  0  0
    4.3914   14.2984  -11.6720 H   0  0  0  0  0  0  0  0  0  0  0  0
    4.3725   12.0420  -10.6006 H   0  0  0  0  0  0  0  0  0  0  0  0
    2.2171   11.1596   -9.7383 H   0  0  0  0  0  0  0  0  0  0  0  0
   -1.3081   10.6587  -12.4500 H   0  0  0  0  0  0  0  0  0  0  0  0
    0.2910   11.3482  -12.2830 H   0  0  0  0  0  0  0  0  0  0  0  0
    1.0393    9.3700  -10.9335 H   0  0  0  0  0  0  0  0  0  0  0  0
   -0.5850    8.6830  -11.0115 H   0  0  0  0  0  0  0  0  0  0  0  0
    0.3768    8.8463  -12.4900 H   0  0  0  0  0  0  0  0  0  0  0  0
   -0.3471   14.6224   -8.1135 H   0  0  0  0  0  0  0  0  0  0  0  0
   -1.5967   13.9224   -7.1431 H   0  0  0  0  0  0  0  0  0  0  0  0
    0.8720   14.0592   -4.5367 H   0  0  0  0  0  0  0  0  0  0  0  0
    0.3020   15.3113   -5.6488 H   0  0  0  0  0  0  0  0  0  0  0  0
   -0.8459   14.1716   -4.9393 H   0  0  0  0  0  0  0  0  0  0  0  0
    2.5435   13.5746   -6.2144 H   0  0  0  0  0  0  0  0  0  0  0  0
    2.1575   12.7716   -7.7156 H   0  0  0  0  0  0  0  0  0  0  0  0
    1.9197   14.5264   -7.5634 H   0  0  0  0  0  0  0  0  0  0  0  0
    0.2709   11.1637   -6.9369 H   0  0  0  0  0  0  0  0  0  0  0  0
    1.2121   11.5990   -5.5010 H   0  0  0  0  0  0  0  0  0  0  0  0
   -2.7663   10.9398   -3.8790 H   0  0  0  0  0  0  0  0  0  0  0  0
   -2.8767    8.5741   -4.7763 H   0  0  0  0  0  0  0  0  0  0  0  0
   -4.7149    8.5297   -5.2221 H   0  0  0  0  0  0  0  0  0  0  0  0
   -7.4486    7.8026   -4.3385 H   0  0  0  0  0  0  0  0  0  0  0  0
   -8.1935    5.7837   -4.7466 H   0  0  0  0  0  0  0  0  0  0  0  0
   -6.2927    3.7463   -6.0151 H   0  0  0  0  0  0  0  0  0  0  0  0
   -9.1457    3.4276   -4.9226 H   0  0  0  0  0  0  0  0  0  0  0  0
   -8.6303    3.1604   -6.5951 H   0  0  0  0  0  0  0  0  0  0  0  0
   -8.0545    2.0886   -5.3188 H   0  0  0  0  0  0  0  0  0  0  0  0
   -7.3186    4.0685   -3.1428 H   0  0  0  0  0  0  0  0  0  0  0  0
   -6.3166    2.7400   -3.7465 H   0  0  0  0  0  0  0  0  0  0  0  0
   -5.6616    4.3761   -3.6872 H   0  0  0  0  0  0  0  0  0  0  0  0
  -11.5310    7.8678   -7.1838 H   0  0  0  0  0  0  0  0  0  0  0  0
  -10.3922    9.0474   -7.8445 H   0  0  0  0  0  0  0  0  0  0  0  0
  -12.5432    8.9946   -9.0829 H   0  0  0  0  0  0  0  0  0  0  0  0
  -11.1756    8.6194  -10.1284 H   0  0  0  0  0  0  0  0  0  0  0  0
  -15.2049   11.5793   -6.8361 H   0  0  0  0  0  0  0  0  0  0  0  0
  -16.4310   10.3534   -6.7030 H   0  0  0  0  0  0  0  0  0  0  0  0
  -14.7912    9.9067   -7.2349 H   0  0  0  0  0  0  0  0  0  0  0  0
  -14.6436   12.5650   -8.8433 H   0  0  0  0  0  0  0  0  0  0  0  0
  -13.9770   11.0483   -9.4580 H   0  0  0  0  0  0  0  0  0  0  0  0
  -15.1791   11.9709  -10.3864 H   0  0  0  0  0  0  0  0  0  0  0  0
  -17.3194    8.6061   -7.7243 H   0  0  0  0  0  0  0  0  0  0  0  0
  -18.4314    9.8078   -8.4188 H   0  0  0  0  0  0  0  0  0  0  0  0
  -18.1153    8.2782   -9.2489 H   0  0  0  0  0  0  0  0  0  0  0  0
  -17.7835   10.9737  -10.6970 H   0  0  0  0  0  0  0  0  0  0  0  0
  -16.2777   10.4864  -11.5023 H   0  0  0  0  0  0  0  0  0  0  0  0
  -17.5687    9.3236  -11.2940 H   0  0  0  0  0  0  0  0  0  0  0  0
  -11.8912    4.9652  -10.1654 H   0  0  0  0  0  0  0  0  0  0  0  0
  -10.7671    6.1817  -10.7746 H   0  0  0  0  0  0  0  0  0  0  0  0
   -9.7749    4.9065   -8.9076 H   0  0  0  0  0  0  0  0  0  0  0  0
  -11.1352    5.2942   -7.8582 H   0  0  0  0  0  0  0  0  0  0  0  0
   -6.2031    5.4075   -7.8316 H   0  0  0  0  0  0  0  0  0  0  0  0
   -7.5817    4.3684   -8.2657 H   0  0  0  0  0  0  0  0  0  0  0  0
   -7.4508    6.0230   -8.9008 H   0  0  0  0  0  0  0  0  0  0  0  0
   -7.0907   10.1186   -4.3274 H   0  0  0  0  0  0  0  0  0  0  0  0
   -5.6415   10.5828   -3.4844 H   0  0  0  0  0  0  0  0  0  0  0  0
   -4.4430   10.9396   -5.6032 H   0  0  0  0  0  0  0  0  0  0  0  0
   -5.5743    9.4215   -7.1903 H   0  0  0  0  0  0  0  0  0  0  0  0
   -7.1229   10.1882   -6.8896 H   0  0  0  0  0  0  0  0  0  0  0  0
   -5.5261   13.4954   -7.8089 H   0  0  0  0  0  0  0  0  0  0  0  0
   -7.1046   13.0058   -8.3949 H   0  0  0  0  0  0  0  0  0  0  0  0
   -7.0439   13.8694   -5.9967 H   0  0  0  0  0  0  0  0  0  0  0  0
   -7.8101   12.2915   -6.1606 H   0  0  0  0  0  0  0  0  0  0  0  0
   -3.8056    8.4510   -0.7295 H   0  0  0  0  0  0  0  0  0  0  0  0
   -2.3191    7.7685   -1.4106 H   0  0  0  0  0  0  0  0  0  0  0  0
   -3.0531   10.7357   -1.1193 H   0  0  0  0  0  0  0  0  0  0  0  0
   -1.7645    9.8908   -0.2581 H   0  0  0  0  0  0  0  0  0  0  0  0
   -0.4570    9.6460   -2.2885 H   0  0  0  0  0  0  0  0  0  0  0  0
   -0.9680   11.3239   -2.2029 H   0  0  0  0  0  0  0  0  0  0  0  0
   -3.1045    9.6639  -11.2370 H   0  0  0  0  0  0  0  0  0  0  0  0
   -5.2356    9.8110  -10.0112 H   0  0  0  0  0  0  0  0  0  0  0  0
   -3.5269   12.6781   -7.3048 H   0  0  0  0  0  0  0  0  0  0  0  0
  1  2  1  0
  2  3  1  0
  2  5  1  0
  3  4  1  0
  5  6  2  0
  5 10  1  0
  6  7  1  0
  7  8  2  0
  8  9  1  0
  9 10  2  0
 10 11  1  0
 11 12  1  0
 11 15  2  0
 12 13  1  0
 12 68  1  0
 13 14  1  0
 15 16  1  0
 15 67  1  0
 16 17  1  0
 17 18  1  0
 17 19  1  0
 17 20  1  0
 20 21  1  0
 21 22  1  0
 22 23  1  0
 22 66  2  0
 23 24  1  0
 23 65  1  0
 24 25  1  0
 25 26  1  0
 25 63  1  0
 26 27  1  0
 26 62  2  0
 27 28  1  0
 27 55  1  0
 28 29  1  0
 29 30  1  0
 29 54  2  0
 30 31  1  0
 30 34  1  0
 31 32  1  0
 31 33  1  0
 34 35  1  0
 34 53  1  0
 35 36  1  0
 35 52  2  0
 36 37  1  0
 36 51  1  0
 36 73  1  0
 37 38  1  0
 38 39  1  0
 39 40  1  0
 39 50  1  0
 40 41  1  0
 40 49  2  0
 42 43  1  0
 43 44  1  0
 43 47  1  0
 43 48  1  0
 44 45  1  0
 44 46  1  0
 50 51  1  0
 55 56  1  0
 56 57  1  0
 56 61  1  0
 57 58  1  0
 58 59  1  0
 58 71  1  0
 59 60  1  0
 60 61  1  0
 63 64  1  0
 64 65  1  0
 67 68  2  0
 67 72  1  0
 68 69  1  0
 69 70  2  0
 70 71  1  0
 71 72  2  0
 41 42  3  0
  1 74  1  0
  1 75  1  0
  1 76  1  0
  2 77  1  6
  4 78  1  0
  4 79  1  0
  4 80  1  0
  7 81  1  0
  8 82  1  0
  9 83  1  0
 13 84  1  0
 13 85  1  0
 14 86  1  0
 14 87  1  0
 14 88  1  0
 16 89  1  0
 16 90  1  0
 18 91  1  0
 18 92  1  0
 18 93  1  0
 19 94  1  0
 19 95  1  0
 19 96  1  0
 20 97  1  0
 20 98  1  0
 23 99  1  6
 24100  1  0
 27101  1  6
 28102  1  0
 30103  1  1
 31104  1  0
 32105  1  0
 32106  1  0
 32107  1  0
 33108  1  0
 33109  1  0
 33110  1  0
 37111  1  0
 37112  1  0
 38113  1  0
 38114  1  0
 45115  1  0
 45116  1  0
 45117  1  0
 46118  1  0
 46119  1  0
 46120  1  0
 47121  1  0
 47122  1  0
 47123  1  0
 48124  1  0
 48125  1  0
 48126  1  0
 50127  1  0
 50128  1  0
 51129  1  0
 51130  1  0
 53131  1  0
 53132  1  0
 53133  1  0
 55134  1  0
 55135  1  0
 56136  1  6
 57137  1  0
 57138  1  0
 59139  1  0
 59140  1  0
 60141  1  0
 60142  1  0
 63143  1  0
 63144  1  0
 64145  1  0
 64146  1  0
 65147  1  0
 65148  1  0
 69149  1  0
 70150  1  0
 72151  1  0
M  END
$$$$
