 xtb: 6.7.1 (edcfbbe)
          08232518273D

151157  0     0  0            999 V2000
   -2.9588   -6.8987   -2.1050 C   0  0  0  0  0  0  0  0  0  0  0  0
   -3.8089   -6.4803   -0.8989 C   0  0  0  0  0  0  0  0  0  0  0  0
   -3.8399   -5.0718   -0.7320 O   0  0  0  0  0  0  0  0  0  0  0  0
   -4.8964   -4.4399   -1.4032 C   0  0  0  0  0  0  0  0  0  0  0  0
   -3.2994   -7.1640    0.3511 C   0  0  0  0  0  0  0  0  0  0  0  0
   -4.0551   -8.1910    0.7206 N   0  0  0  0  0  0  0  0  0  0  0  0
   -3.6905   -8.9464    1.7383 C   0  0  0  0  0  0  0  0  0  0  0  0
   -2.5227   -8.7312    2.4513 C   0  0  0  0  0  0  0  0  0  0  0  0
   -1.7381   -7.6552    2.0828 C   0  0  0  0  0  0  0  0  0  0  0  0
   -2.1205   -6.8268    1.0261 C   0  0  0  0  0  0  0  0  0  0  0  0
   -1.2444   -5.6923    0.6965 C   0  0  0  0  0  0  0  0  0  0  0  0
   -0.0291   -5.9318    0.0932 N   0  0  0  0  0  0  0  0  0  0  0  0
    0.4520   -7.1954   -0.4002 C   0  0  0  0  0  0  0  0  0  0  0  0
    1.5580   -7.7737    0.4820 C   0  0  0  0  0  0  0  0  0  0  0  0
   -1.3642   -4.3577    1.0133 C   0  0  0  0  0  0  0  0  0  0  0  0
   -2.5114   -3.6269    1.6376 C   0  0  0  0  0  0  0  0  0  0  0  0
   -2.5225   -3.5332    3.1804 C   0  0  0  0  0  0  0  0  0  0  0  0
   -3.7664   -2.7491    3.6065 C   0  0  0  0  0  0  0  0  0  0  0  0
   -2.5785   -4.9325    3.7950 C   0  0  0  0  0  0  0  0  0  0  0  0
   -1.2480   -2.8509    3.7218 C   0  0  0  0  0  0  0  0  0  0  0  0
   -1.3119   -1.4201    3.8041 O   0  0  0  0  0  0  0  0  0  0  0  0
   -1.5755   -0.9033    5.0014 C   0  0  0  0  0  0  0  0  0  0  0  0
   -1.4281    0.6145    5.0063 C   0  0  0  0  0  0  0  0  0  0  0  0
   -2.2288    1.2739    3.9836 N   0  0  0  0  0  0  0  0  0  0  0  0
   -1.8659    2.6244    3.9084 N   0  0  0  0  0  0  0  0  0  0  0  0
   -0.8568    3.1385    3.1690 C   0  0  0  0  0  0  0  0  0  0  0  0
   -0.1895    2.1746    2.1689 C   0  0  0  0  0  0  0  0  0  0  0  0
   -0.7076    2.4466    0.8432 N   0  0  0  0  0  0  0  0  0  0  0  0
   -1.8184    1.8510    0.3904 C   0  0  0  0  0  0  0  0  0  0  0  0
   -2.2504    2.2725   -1.0165 C   0  0  0  0  0  0  0  0  0  0  0  0
   -3.3767    3.3162   -0.9648 C   0  0  0  0  0  0  0  0  0  0  0  0
   -3.6983    3.8040   -2.3768 C   0  0  0  0  0  0  0  0  0  0  0  0
   -2.9547    4.4991   -0.0935 C   0  0  0  0  0  0  0  0  0  0  0  0
   -2.5863    1.0629   -1.7718 N   0  0  0  0  0  0  0  0  0  0  0  0
   -1.5379    0.4644   -2.3652 C   0  0  0  0  0  0  0  0  0  0  0  0
   -1.7205   -0.8641   -3.1202 C   0  0  0  0  0  0  0  0  0  0  0  0
   -1.8136   -2.0500   -2.1560 C   0  0  0  0  0  0  0  0  0  0  0  0
   -1.9019   -3.3625   -2.9374 C   0  0  0  0  0  0  0  0  0  0  0  0
   -0.7478   -3.4896   -3.7926 N   0  0  0  0  0  0  0  0  0  0  0  0
    0.1746   -4.4520   -3.5686 C   0  0  0  0  0  0  0  0  0  0  0  0
    1.4450   -4.2515   -4.2207 C   0  0  0  0  0  0  0  0  0  0  0  0
    2.6037   -4.1495   -4.5334 C   0  0  0  0  0  0  0  0  0  0  0  0
    3.9596   -3.9548   -5.0455 C   0  0  0  0  0  0  0  0  0  0  0  0
    3.9884   -3.9247   -6.5170 N   0  0  0  0  0  0  0  0  0  0  0  0
    3.5950   -5.1802   -7.1304 C   0  0  0  0  0  0  0  0  0  0  0  0
    3.2374   -2.8291   -7.0977 C   0  0  0  0  0  0  0  0  0  0  0  0
    4.4986   -2.6279   -4.4825 C   0  0  0  0  0  0  0  0  0  0  0  0
    4.8496   -5.0949   -4.5255 C   0  0  0  0  0  0  0  0  0  0  0  0
   -0.0251   -5.4164   -2.8485 O   0  0  0  0  0  0  0  0  0  0  0  0
   -0.6124   -2.4258   -4.7541 C   0  0  0  0  0  0  0  0  0  0  0  0
   -0.5295   -1.0672   -4.0623 C   0  0  0  0  0  0  0  0  0  0  0  0
   -0.4170    0.9550   -2.3257 O   0  0  0  0  0  0  0  0  0  0  0  0
   -3.8966    0.4884   -1.5575 C   0  0  0  0  0  0  0  0  0  0  0  0
   -2.4345    1.0226    1.0456 O   0  0  0  0  0  0  0  0  0  0  0  0
    1.3289    2.3347    2.2149 C   0  0  0  0  0  0  0  0  0  0  0  0
    2.0901    1.3802    1.2802 C   0  0  0  0  0  0  0  0  0  0  0  0
    1.3402    0.0664    1.0512 C   0  0  0  0  0  0  0  0  0  0  0  0
    2.0883   -0.8126    0.1753 N   0  0  0  0  0  0  0  0  0  0  0  0
    2.3565   -0.1271   -1.0837 C   0  0  0  0  0  0  0  0  0  0  0  0
    3.0726    1.1943   -0.8042 C   0  0  0  0  0  0  0  0  0  0  0  0
    2.3171    2.0288    0.0439 O   0  0  0  0  0  0  0  0  0  0  0  0
   -0.5415    4.3131    3.2248 O   0  0  0  0  0  0  0  0  0  0  0  0
   -2.3442    3.3311    5.0827 C   0  0  0  0  0  0  0  0  0  0  0  0
   -1.6638    2.7344    6.3188 C   0  0  0  0  0  0  0  0  0  0  0  0
   -1.8592    1.2181    6.3475 C   0  0  0  0  0  0  0  0  0  0  0  0
   -1.8114   -1.5445    5.9912 O   0  0  0  0  0  0  0  0  0  0  0  0
   -0.1637   -3.7401    0.5532 C   0  0  0  0  0  0  0  0  0  0  0  0
    0.6378   -4.7470   -0.0267 C   0  0  0  0  0  0  0  0  0  0  0  0
    1.8686   -4.4309   -0.5943 C   0  0  0  0  0  0  0  0  0  0  0  0
    2.2964   -3.1241   -0.5402 C   0  0  0  0  0  0  0  0  0  0  0  0
    1.5288   -2.1087    0.0621 C   0  0  0  0  0  0  0  0  0  0  0  0
    0.2856   -2.4197    0.5864 C   0  0  0  0  0  0  0  0  0  0  0  0
   -2.8759   -0.8109   -3.9062 F   0  0  0  0  0  0  0  0  0  0  0  0
   -1.9475   -6.5103   -2.0178 H   0  0  0  0  0  0  0  0  0  0  0  0
   -2.9230   -7.9834   -2.1640 H   0  0  0  0  0  0  0  0  0  0  0  0
   -3.3992   -6.5172   -3.0237 H   0  0  0  0  0  0  0  0  0  0  0  0
   -4.8346   -6.8522   -1.0435 H   0  0  0  0  0  0  0  0  0  0  0  0
   -4.8252   -3.3809   -1.1606 H   0  0  0  0  0  0  0  0  0  0  0  0
   -4.8305   -4.5666   -2.4898 H   0  0  0  0  0  0  0  0  0  0  0  0
   -5.8682   -4.8218   -1.0653 H   0  0  0  0  0  0  0  0  0  0  0  0
   -4.3622   -9.7597    1.9798 H   0  0  0  0  0  0  0  0  0  0  0  0
   -2.2393   -9.3782    3.2667 H   0  0  0  0  0  0  0  0  0  0  0  0
   -0.8206   -7.4433    2.6138 H   0  0  0  0  0  0  0  0  0  0  0  0
   -0.3882   -7.8926   -0.4467 H   0  0  0  0  0  0  0  0  0  0  0  0
    0.8257   -7.0382   -1.4156 H   0  0  0  0  0  0  0  0  0  0  0  0
    1.1801   -8.0073    1.4745 H   0  0  0  0  0  0  0  0  0  0  0  0
    1.9440   -8.6871    0.0370 H   0  0  0  0  0  0  0  0  0  0  0  0
    2.3735   -7.0622    0.5839 H   0  0  0  0  0  0  0  0  0  0  0  0
   -2.5144   -2.6086    1.2421 H   0  0  0  0  0  0  0  0  0  0  0  0
   -3.4370   -4.1114    1.3265 H   0  0  0  0  0  0  0  0  0  0  0  0
   -3.7928   -2.6328    4.6877 H   0  0  0  0  0  0  0  0  0  0  0  0
   -3.7773   -1.7607    3.1511 H   0  0  0  0  0  0  0  0  0  0  0  0
   -4.6621   -3.2814    3.2953 H   0  0  0  0  0  0  0  0  0  0  0  0
   -2.7432   -4.8693    4.8685 H   0  0  0  0  0  0  0  0  0  0  0  0
   -3.3889   -5.5072    3.3537 H   0  0  0  0  0  0  0  0  0  0  0  0
   -1.6451   -5.4588    3.6185 H   0  0  0  0  0  0  0  0  0  0  0  0
   -1.0442   -3.2221    4.7312 H   0  0  0  0  0  0  0  0  0  0  0  0
   -0.3990   -3.0726    3.0722 H   0  0  0  0  0  0  0  0  0  0  0  0
   -0.3451    0.8023    4.8550 H   0  0  0  0  0  0  0  0  0  0  0  0
   -2.2391    0.8295    3.0673 H   0  0  0  0  0  0  0  0  0  0  0  0
   -0.4551    1.1454    2.4201 H   0  0  0  0  0  0  0  0  0  0  0  0
   -0.1685    3.0709    0.2637 H   0  0  0  0  0  0  0  0  0  0  0  0
   -1.3898    2.7160   -1.5285 H   0  0  0  0  0  0  0  0  0  0  0  0
   -4.2643    2.8656   -0.5128 H   0  0  0  0  0  0  0  0  0  0  0  0
   -4.5540    4.4746   -2.3570 H   0  0  0  0  0  0  0  0  0  0  0  0
   -2.8481    4.3460   -2.7855 H   0  0  0  0  0  0  0  0  0  0  0  0
   -3.9229    2.9781   -3.0466 H   0  0  0  0  0  0  0  0  0  0  0  0
   -2.7974    4.1983    0.9393 H   0  0  0  0  0  0  0  0  0  0  0  0
   -2.0364    4.9472   -0.4669 H   0  0  0  0  0  0  0  0  0  0  0  0
   -3.7324    5.2589   -0.1083 H   0  0  0  0  0  0  0  0  0  0  0  0
   -0.9149   -2.0565   -1.5358 H   0  0  0  0  0  0  0  0  0  0  0  0
   -2.6763   -1.9671   -1.4976 H   0  0  0  0  0  0  0  0  0  0  0  0
   -1.9231   -4.2014   -2.2419 H   0  0  0  0  0  0  0  0  0  0  0  0
   -2.8104   -3.3694   -3.5500 H   0  0  0  0  0  0  0  0  0  0  0  0
    4.3021   -5.9632   -6.8692 H   0  0  0  0  0  0  0  0  0  0  0  0
    2.5825   -5.5000   -6.8429 H   0  0  0  0  0  0  0  0  0  0  0  0
    3.6224   -5.0559   -8.2120 H   0  0  0  0  0  0  0  0  0  0  0  0
    3.6248   -1.8763   -6.7476 H   0  0  0  0  0  0  0  0  0  0  0  0
    3.3658   -2.8635   -8.1789 H   0  0  0  0  0  0  0  0  0  0  0  0
    2.1597   -2.8792   -6.8769 H   0  0  0  0  0  0  0  0  0  0  0  0
    4.6982   -2.7376   -3.4195 H   0  0  0  0  0  0  0  0  0  0  0  0
    5.4240   -2.3716   -4.9916 H   0  0  0  0  0  0  0  0  0  0  0  0
    3.7830   -1.8187   -4.6034 H   0  0  0  0  0  0  0  0  0  0  0  0
    4.9919   -4.9857   -3.4532 H   0  0  0  0  0  0  0  0  0  0  0  0
    4.3970   -6.0665   -4.7023 H   0  0  0  0  0  0  0  0  0  0  0  0
    5.8175   -5.0510   -5.0181 H   0  0  0  0  0  0  0  0  0  0  0  0
    0.2821   -2.5930   -5.3571 H   0  0  0  0  0  0  0  0  0  0  0  0
   -1.4908   -2.4425   -5.4124 H   0  0  0  0  0  0  0  0  0  0  0  0
   -0.5188   -0.2688   -4.8055 H   0  0  0  0  0  0  0  0  0  0  0  0
    0.3850   -1.0018   -3.4737 H   0  0  0  0  0  0  0  0  0  0  0  0
   -4.0291    0.2882   -0.4921 H   0  0  0  0  0  0  0  0  0  0  0  0
   -4.6679    1.1825   -1.8907 H   0  0  0  0  0  0  0  0  0  0  0  0
   -4.0191   -0.4301   -2.1166 H   0  0  0  0  0  0  0  0  0  0  0  0
    1.5881    3.3603    1.9469 H   0  0  0  0  0  0  0  0  0  0  0  0
    1.6544    2.1647    3.2425 H   0  0  0  0  0  0  0  0  0  0  0  0
    3.0717    1.1461    1.7293 H   0  0  0  0  0  0  0  0  0  0  0  0
    1.1991   -0.4387    2.0095 H   0  0  0  0  0  0  0  0  0  0  0  0
    0.3677    0.3008    0.5955 H   0  0  0  0  0  0  0  0  0  0  0  0
    2.9806   -0.7568   -1.7182 H   0  0  0  0  0  0  0  0  0  0  0  0
    1.4180    0.1049   -1.6093 H   0  0  0  0  0  0  0  0  0  0  0  0
    4.0530    0.9949   -0.3435 H   0  0  0  0  0  0  0  0  0  0  0  0
    3.2107    1.7502   -1.7326 H   0  0  0  0  0  0  0  0  0  0  0  0
   -2.1023    4.3873    4.9661 H   0  0  0  0  0  0  0  0  0  0  0  0
   -3.4259    3.1943    5.1366 H   0  0  0  0  0  0  0  0  0  0  0  0
   -0.5970    2.9675    6.2784 H   0  0  0  0  0  0  0  0  0  0  0  0
   -2.0767    3.1845    7.2212 H   0  0  0  0  0  0  0  0  0  0  0  0
   -2.9124    0.9805    6.4997 H   0  0  0  0  0  0  0  0  0  0  0  0
   -1.2872    0.7676    7.1582 H   0  0  0  0  0  0  0  0  0  0  0  0
    2.4759   -5.1833   -1.0732 H   0  0  0  0  0  0  0  0  0  0  0  0
    3.2600   -2.8652   -0.9524 H   0  0  0  0  0  0  0  0  0  0  0  0
   -0.3561   -1.6735    1.0250 H   0  0  0  0  0  0  0  0  0  0  0  0
  1  2  1  0  0  0  0
  2  3  1  0  0  0  0
  3  4  1  0  0  0  0
  2  5  1  0  0  0  0
  5  6  4  0  0  0  0
  6  7  4  0  0  0  0
  7  8  4  0  0  0  0
  8  9  4  0  0  0  0
  5 10  4  0  0  0  0
  9 10  4  0  0  0  0
 10 11  1  0  0  0  0
 11 12  1  0  0  0  0
 12 13  1  0  0  0  0
 13 14  1  0  0  0  0
 11 15  2  0  0  0  0
 15 16  1  0  0  0  0
 16 17  1  0  0  0  0
 17 18  1  0  0  0  0
 17 19  1  0  0  0  0
 17 20  1  0  0  0  0
 20 21  1  0  0  0  0
 21 22  1  0  0  0  0
 22 23  1  0  0  0  0
 23 24  1  0  0  0  0
 24 25  1  0  0  0  0
 25 26  4  0  0  0  0
 26 27  1  0  0  0  0
 27 28  1  0  0  0  0
 28 29  4  0  0  0  0
 29 30  1  0  0  0  0
 30 31  1  0  0  0  0
 31 32  1  0  0  0  0
 31 33  1  0  0  0  0
 30 34  1  0  0  0  0
 34 35  4  0  0  0  0
 35 36  1  0  0  0  0
 36 37  1  0  0  0  0
 37 38  1  0  0  0  0
 38 39  1  0  0  0  0
 39 40  4  0  0  0  0
 40 41  1  0  0  0  0
 41 42  3  0  0  0  0
 42 43  1  0  0  0  0
 43 44  1  0  0  0  0
 44 45  1  0  0  0  0
 44 46  1  0  0  0  0
 43 47  1  0  0  0  0
 43 48  1  0  0  0  0
 40 49  2  0  0  0  0
 39 50  1  0  0  0  0
 36 51  1  0  0  0  0
 50 51  1  0  0  0  0
 35 52  2  0  0  0  0
 34 53  1  0  0  0  0
 29 54  2  0  0  0  0
 27 55  1  0  0  0  0
 55 56  1  0  0  0  0
 56 57  1  0  0  0  0
 57 58  1  0  0  0  0
 58 59  1  0  0  0  0
 59 60  1  0  0  0  0
 56 61  1  0  0  0  0
 60 61  1  0  0  0  0
 26 62  2  0  0  0  0
 25 63  1  0  0  0  0
 63 64  1  0  0  0  0
 23 65  1  0  0  0  0
 64 65  1  0  0  0  0
 22 66  2  0  0  0  0
 15 67  4  0  0  0  0
 12 68  1  0  0  0  0
 67 68  4  0  0  0  0
 68 69  4  0  0  0  0
 69 70  2  0  0  0  0
 58 71  1  0  0  0  0
 70 71  4  0  0  0  0
 67 72  4  0  0  0  0
 71 72  4  0  0  0  0
 36 73  1  0  0  0  0
  1 74  1  0  0  0  0
  1 75  1  0  0  0  0
  1 76  1  0  0  0  0
  2 77  1  0  0  0  0
  4 78  1  0  0  0  0
  4 79  1  0  0  0  0
  4 80  1  0  0  0  0
  7 81  1  0  0  0  0
  8 82  1  0  0  0  0
  9 83  1  0  0  0  0
 13 84  1  0  0  0  0
 13 85  1  0  0  0  0
 14 86  1  0  0  0  0
 14 87  1  0  0  0  0
 14 88  1  0  0  0  0
 16 89  1  0  0  0  0
 16 90  1  0  0  0  0
 18 91  1  0  0  0  0
 18 92  1  0  0  0  0
 18 93  1  0  0  0  0
 19 94  1  0  0  0  0
 19 95  1  0  0  0  0
 19 96  1  0  0  0  0
 20 97  1  0  0  0  0
 20 98  1  0  0  0  0
 23 99  1  0  0  0  0
 24100  1  0  0  0  0
 27101  1  0  0  0  0
 28102  1  0  0  0  0
 30103  1  0  0  0  0
 31104  1  0  0  0  0
 32105  1  0  0  0  0
 32106  1  0  0  0  0
 32107  1  0  0  0  0
 33108  1  0  0  0  0
 33109  1  0  0  0  0
 33110  1  0  0  0  0
 37111  1  0  0  0  0
 37112  1  0  0  0  0
 38113  1  0  0  0  0
 38114  1  0  0  0  0
 45115  1  0  0  0  0
 45116  1  0  0  0  0
 45117  1  0  0  0  0
 46118  1  0  0  0  0
 46119  1  0  0  0  0
 46120  1  0  0  0  0
 47121  1  0  0  0  0
 47122  1  0  0  0  0
 47123  1  0  0  0  0
 48124  1  0  0  0  0
 48125  1  0  0  0  0
 48126  1  0  0  0  0
 50127  1  0  0  0  0
 50128  1  0  0  0  0
 51129  1  0  0  0  0
 51130  1  0  0  0  0
 53131  1  0  0  0  0
 53132  1  0  0  0  0
 53133  1  0  0  0  0
 55134  1  0  0  0  0
 55135  1  0  0  0  0
 56136  1  0  0  0  0
 57137  1  0  0  0  0
 57138  1  0  0  0  0
 59139  1  0  0  0  0
 59140  1  0  0  0  0
 60141  1  0  0  0  0
 60142  1  0  0  0  0
 63143  1  0  0  0  0
 63144  1  0  0  0  0
 64145  1  0  0  0  0
 64146  1  0  0  0  0
 65147  1  0  0  0  0
 65148  1  0  0  0  0
 69149  1  0  0  0  0
 70150  1  0  0  0  0
 72151  1  0  0  0  0
M  END
$$$$
