 energy: -221.289178754611 gnorm: 0.000383690148 xtb: 6.7.1 (edcfbbe)
          08232520033D

151157  0     0  0            999 V2000
    4.8505    1.1069   -2.1695 C   0  0  0  0  0  0  0  0  0  0  0  0
    4.9044    1.9696   -0.9001 C   0  0  0  0  0  0  0  0  0  0  0  0
    4.0235    1.4966    0.1029 O   0  0  0  0  0  0  0  0  0  0  0  0
    4.6101    0.5778    0.9868 C   0  0  0  0  0  0  0  0  0  0  0  0
    4.6116    3.4086   -1.2636 C   0  0  0  0  0  0  0  0  0  0  0  0
    5.7160    4.1131   -1.4824 N   0  0  0  0  0  0  0  0  0  0  0  0
    5.6308    5.3606   -1.9007 C   0  0  0  0  0  0  0  0  0  0  0  0
    4.4204    5.9899   -2.1417 C   0  0  0  0  0  0  0  0  0  0  0  0
    3.2668    5.2688   -1.9015 C   0  0  0  0  0  0  0  0  0  0  0  0
    3.3351    3.9532   -1.4377 C   0  0  0  0  0  0  0  0  0  0  0  0
    2.0615    3.2552   -1.2032 C   0  0  0  0  0  0  0  0  0  0  0  0
    1.3173    2.8386   -2.2859 N   0  0  0  0  0  0  0  0  0  0  0  0
    1.7143    2.8688   -3.6709 C   0  0  0  0  0  0  0  0  0  0  0  0
    0.9742    3.9518   -4.4552 C   0  0  0  0  0  0  0  0  0  0  0  0
    1.3590    3.0543   -0.0362 C   0  0  0  0  0  0  0  0  0  0  0  0
    1.8041    3.2623    1.3782 C   0  0  0  0  0  0  0  0  0  0  0  0
    1.5001    4.6335    2.0214 C   0  0  0  0  0  0  0  0  0  0  0  0
    2.1011    5.7591    1.1789 C   0  0  0  0  0  0  0  0  0  0  0  0
    2.1253    4.6596    3.4184 C   0  0  0  0  0  0  0  0  0  0  0  0
   -0.0164    4.8982    2.1134 C   0  0  0  0  0  0  0  0  0  0  0  0
   -0.6708    4.3048    3.2443 O   0  0  0  0  0  0  0  0  0  0  0  0
   -0.9097    5.1022    4.2827 C   0  0  0  0  0  0  0  0  0  0  0  0
   -1.7901    4.4279    5.3299 C   0  0  0  0  0  0  0  0  0  0  0  0
   -1.3024    3.1236    5.7549 N   0  0  0  0  0  0  0  0  0  0  0  0
   -2.2873    2.4857    6.5201 N   0  0  0  0  0  0  0  0  0  0  0  0
   -3.2964    1.7191    6.0472 C   0  0  0  0  0  0  0  0  0  0  0  0
   -3.2201    1.3580    4.5524 C   0  0  0  0  0  0  0  0  0  0  0  0
   -2.6911    0.0157    4.4037 N   0  0  0  0  0  0  0  0  0  0  0  0
   -1.3789   -0.1967    4.2331 C   0  0  0  0  0  0  0  0  0  0  0  0
   -0.9934   -1.6548    3.9723 C   0  0  0  0  0  0  0  0  0  0  0  0
   -0.6544   -2.4040    5.2767 C   0  0  0  0  0  0  0  0  0  0  0  0
   -0.3146   -3.8586    4.9565 C   0  0  0  0  0  0  0  0  0  0  0  0
   -1.8275   -2.3451    6.2530 C   0  0  0  0  0  0  0  0  0  0  0  0
    0.0969   -1.6971    3.0034 N   0  0  0  0  0  0  0  0  0  0  0  0
   -0.1949   -2.1563    1.7736 C   0  0  0  0  0  0  0  0  0  0  0  0
    0.8872   -2.1438    0.6840 C   0  0  0  0  0  0  0  0  0  0  0  0
    0.6006   -3.2066   -0.3798 C   0  0  0  0  0  0  0  0  0  0  0  0
    1.6327   -3.1127   -1.5056 C   0  0  0  0  0  0  0  0  0  0  0  0
    1.6572   -1.7867   -2.0707 N   0  0  0  0  0  0  0  0  0  0  0  0
    1.6466   -1.5105   -3.3946 C   0  0  0  0  0  0  0  0  0  0  0  0
    1.6152   -2.6601   -4.2648 C   0  0  0  0  0  0  0  0  0  0  0  0
    1.7059   -3.4754   -5.1476 C   0  0  0  0  0  0  0  0  0  0  0  0
    1.8193   -4.6015   -6.0735 C   0  0  0  0  0  0  0  0  0  0  0  0
    1.7708   -5.8920   -5.3654 N   0  0  0  0  0  0  0  0  0  0  0  0
    2.8823   -6.0997   -4.4565 C   0  0  0  0  0  0  0  0  0  0  0  0
    0.5088   -6.1359   -4.6932 C   0  0  0  0  0  0  0  0  0  0  0  0
    0.6767   -4.5207   -7.0980 C   0  0  0  0  0  0  0  0  0  0  0  0
    3.1529   -4.4669   -6.8276 C   0  0  0  0  0  0  0  0  0  0  0  0
    1.7011   -0.3759   -3.8430 O   0  0  0  0  0  0  0  0  0  0  0  0
    1.9016   -0.7291   -1.1187 C   0  0  0  0  0  0  0  0  0  0  0  0
    0.8916   -0.7643    0.0194 C   0  0  0  0  0  0  0  0  0  0  0  0
   -1.3197   -2.5244    1.4616 O   0  0  0  0  0  0  0  0  0  0  0  0
    1.3925   -1.2130    3.4325 C   0  0  0  0  0  0  0  0  0  0  0  0
   -0.5659    0.7153    4.2727 O   0  0  0  0  0  0  0  0  0  0  0  0
   -4.5909    1.4609    3.8867 C   0  0  0  0  0  0  0  0  0  0  0  0
   -4.5701    1.0546    2.4042 C   0  0  0  0  0  0  0  0  0  0  0  0
   -3.2672    1.4619    1.7120 C   0  0  0  0  0  0  0  0  0  0  0  0
   -3.2393    1.0488    0.3224 N   0  0  0  0  0  0  0  0  0  0  0  0
   -3.4961   -0.3857    0.2255 C   0  0  0  0  0  0  0  0  0  0  0  0
   -4.7886   -0.7376    0.9592 C   0  0  0  0  0  0  0  0  0  0  0  0
   -4.7445   -0.3477    2.3139 O   0  0  0  0  0  0  0  0  0  0  0  0
   -4.1712    1.2738    6.7671 O   0  0  0  0  0  0  0  0  0  0  0  0
   -2.4033    3.1340    7.8137 C   0  0  0  0  0  0  0  0  0  0  0  0
   -2.8438    4.5850    7.5943 C   0  0  0  0  0  0  0  0  0  0  0  0
   -1.9092    5.2765    6.6008 C   0  0  0  0  0  0  0  0  0  0  0  0
   -0.5660    6.2524    4.3590 O   0  0  0  0  0  0  0  0  0  0  0  0
    0.1175    2.4676   -0.4243 C   0  0  0  0  0  0  0  0  0  0  0  0
    0.1317    2.3356   -1.8298 C   0  0  0  0  0  0  0  0  0  0  0  0
   -0.9407    1.7539   -2.4988 C   0  0  0  0  0  0  0  0  0  0  0  0
   -2.0224    1.3384   -1.7563 C   0  0  0  0  0  0  0  0  0  0  0  0
   -2.0647    1.4709   -0.3552 C   0  0  0  0  0  0  0  0  0  0  0  0
   -0.9858    2.0302    0.3077 C   0  0  0  0  0  0  0  0  0  0  0  0
    2.1476   -2.4244    1.2092 F   0  0  0  0  0  0  0  0  0  0  0  0
    5.1632    0.0892   -1.9469 H   0  0  0  0  0  0  0  0  0  0  0  0
    3.8417    1.0808   -2.5715 H   0  0  0  0  0  0  0  0  0  0  0  0
    5.5237    1.5207   -2.9154 H   0  0  0  0  0  0  0  0  0  0  0  0
    5.9362    1.9603   -0.5177 H   0  0  0  0  0  0  0  0  0  0  0  0
    3.8402    0.3041    1.7057 H   0  0  0  0  0  0  0  0  0  0  0  0
    4.9599   -0.3267    0.4757 H   0  0  0  0  0  0  0  0  0  0  0  0
    5.4583    1.0241    1.5210 H   0  0  0  0  0  0  0  0  0  0  0  0
    6.5749    5.8667   -2.0532 H   0  0  0  0  0  0  0  0  0  0  0  0
    4.3813    7.0066   -2.5001 H   0  0  0  0  0  0  0  0  0  0  0  0
    2.2981    5.7186   -2.0679 H   0  0  0  0  0  0  0  0  0  0  0  0
    2.7909    3.0511   -3.7186 H   0  0  0  0  0  0  0  0  0  0  0  0
    1.5120    1.8862   -4.1077 H   0  0  0  0  0  0  0  0  0  0  0  0
    1.2356    4.9420   -4.0890 H   0  0  0  0  0  0  0  0  0  0  0  0
    1.2412    3.8909   -5.5067 H   0  0  0  0  0  0  0  0  0  0  0  0
   -0.1008    3.8229   -4.3596 H   0  0  0  0  0  0  0  0  0  0  0  0
    1.3320    2.4953    1.9974 H   0  0  0  0  0  0  0  0  0  0  0  0
    2.8831    3.1088    1.4179 H   0  0  0  0  0  0  0  0  0  0  0  0
    2.0158    6.7108    1.6989 H   0  0  0  0  0  0  0  0  0  0  0  0
    3.1529    5.5640    0.9858 H   0  0  0  0  0  0  0  0  0  0  0  0
    1.5822    5.8361    0.2275 H   0  0  0  0  0  0  0  0  0  0  0  0
    1.8852    5.5907    3.9268 H   0  0  0  0  0  0  0  0  0  0  0  0
    1.7592    3.8308    4.0213 H   0  0  0  0  0  0  0  0  0  0  0  0
    3.2069    4.5772    3.3415 H   0  0  0  0  0  0  0  0  0  0  0  0
   -0.1870    5.9780    2.1712 H   0  0  0  0  0  0  0  0  0  0  0  0
   -0.5202    4.4942    1.2330 H   0  0  0  0  0  0  0  0  0  0  0  0
   -2.7899    4.3497    4.8541 H   0  0  0  0  0  0  0  0  0  0  0  0
   -0.9335    2.5210    5.0211 H   0  0  0  0  0  0  0  0  0  0  0  0
   -2.5275    2.0416    4.0550 H   0  0  0  0  0  0  0  0  0  0  0  0
   -3.3683   -0.7209    4.2746 H   0  0  0  0  0  0  0  0  0  0  0  0
   -1.8390   -2.1585    3.4906 H   0  0  0  0  0  0  0  0  0  0  0  0
    0.2113   -1.9280    5.7472 H   0  0  0  0  0  0  0  0  0  0  0  0
   -0.0576   -4.3923    5.8681 H   0  0  0  0  0  0  0  0  0  0  0  0
   -1.1686   -4.3515    4.4969 H   0  0  0  0  0  0  0  0  0  0  0  0
    0.5263   -3.9275    4.2714 H   0  0  0  0  0  0  0  0  0  0  0  0
   -1.5862   -2.9135    7.1480 H   0  0  0  0  0  0  0  0  0  0  0  0
   -2.0491   -1.3241    6.5531 H   0  0  0  0  0  0  0  0  0  0  0  0
   -2.7199   -2.7798    5.8076 H   0  0  0  0  0  0  0  0  0  0  0  0
    0.6462   -4.1975    0.0747 H   0  0  0  0  0  0  0  0  0  0  0  0
   -0.4077   -3.0472   -0.7598 H   0  0  0  0  0  0  0  0  0  0  0  0
    2.6247   -3.3535   -1.0978 H   0  0  0  0  0  0  0  0  0  0  0  0
    1.3945   -3.8338   -2.2903 H   0  0  0  0  0  0  0  0  0  0  0  0
    2.9627   -5.3191   -3.6848 H   0  0  0  0  0  0  0  0  0  0  0  0
    2.7462   -7.0599   -3.9611 H   0  0  0  0  0  0  0  0  0  0  0  0
    3.8160   -6.1436   -5.0115 H   0  0  0  0  0  0  0  0  0  0  0  0
    0.5704   -7.0955   -4.1823 H   0  0  0  0  0  0  0  0  0  0  0  0
    0.2564   -5.3631   -3.9509 H   0  0  0  0  0  0  0  0  0  0  0  0
   -0.2959   -6.1993   -5.4211 H   0  0  0  0  0  0  0  0  0  0  0  0
   -0.2860   -4.3838   -6.6136 H   0  0  0  0  0  0  0  0  0  0  0  0
    0.8393   -3.6732   -7.7589 H   0  0  0  0  0  0  0  0  0  0  0  0
    0.6586   -5.4334   -7.6879 H   0  0  0  0  0  0  0  0  0  0  0  0
    3.9816   -4.2930   -6.1467 H   0  0  0  0  0  0  0  0  0  0  0  0
    3.3365   -5.3743   -7.3970 H   0  0  0  0  0  0  0  0  0  0  0  0
    3.1026   -3.6226   -7.5101 H   0  0  0  0  0  0  0  0  0  0  0  0
    2.9096   -0.8438   -0.7071 H   0  0  0  0  0  0  0  0  0  0  0  0
    1.8367    0.2245   -1.6408 H   0  0  0  0  0  0  0  0  0  0  0  0
   -0.1123   -0.5721   -0.3615 H   0  0  0  0  0  0  0  0  0  0  0  0
    1.1414    0.0221    0.7305 H   0  0  0  0  0  0  0  0  0  0  0  0
    1.2518   -0.5672    4.2939 H   0  0  0  0  0  0  0  0  0  0  0  0
    2.0566   -2.0390    3.6965 H   0  0  0  0  0  0  0  0  0  0  0  0
    1.8644   -0.6207    2.6528 H   0  0  0  0  0  0  0  0  0  0  0  0
   -5.2946    0.8152    4.4150 H   0  0  0  0  0  0  0  0  0  0  0  0
   -4.9432    2.4896    3.9742 H   0  0  0  0  0  0  0  0  0  0  0  0
   -5.4141    1.5415    1.8859 H   0  0  0  0  0  0  0  0  0  0  0  0
   -3.1618    2.5490    1.7507 H   0  0  0  0  0  0  0  0  0  0  0  0
   -2.4343    0.9846    2.2438 H   0  0  0  0  0  0  0  0  0  0  0  0
   -3.5910   -0.6659   -0.8236 H   0  0  0  0  0  0  0  0  0  0  0  0
   -2.6762   -0.9691    0.6733 H   0  0  0  0  0  0  0  0  0  0  0  0
   -5.6419   -0.2475    0.4660 H   0  0  0  0  0  0  0  0  0  0  0  0
   -4.9359   -1.8184    0.9573 H   0  0  0  0  0  0  0  0  0  0  0  0
   -3.1321    2.5823    8.4070 H   0  0  0  0  0  0  0  0  0  0  0  0
   -1.4227    3.1000    8.2925 H   0  0  0  0  0  0  0  0  0  0  0  0
   -3.8636    4.5862    7.2019 H   0  0  0  0  0  0  0  0  0  0  0  0
   -2.8441    5.1178    8.5448 H   0  0  0  0  0  0  0  0  0  0  0  0
   -0.9131    5.3760    7.0331 H   0  0  0  0  0  0  0  0  0  0  0  0
   -2.2744    6.2721    6.3509 H   0  0  0  0  0  0  0  0  0  0  0  0
   -0.9303    1.6224   -3.5696 H   0  0  0  0  0  0  0  0  0  0  0  0
   -2.8744    0.9069   -2.2590 H   0  0  0  0  0  0  0  0  0  0  0  0
   -0.9525    2.1284    1.3795 H   0  0  0  0  0  0  0  0  0  0  0  0
  1  2  1  0  0  0  0
  2  3  1  0  0  0  0
  2  5  1  0  0  0  0
  3  4  1  0  0  0  0
  5  6  2  0  0  0  0
  5 10  1  0  0  0  0
  6  7  1  0  0  0  0
  7  8  2  0  0  0  0
  8  9  1  0  0  0  0
  9 10  2  0  0  0  0
 10 11  1  0  0  0  0
 11 12  1  0  0  0  0
 11 15  2  0  0  0  0
 12 13  1  0  0  0  0
 12 68  1  0  0  0  0
 13 14  1  0  0  0  0
 15 16  1  0  0  0  0
 15 67  1  0  0  0  0
 16 17  1  0  0  0  0
 17 18  1  0  0  0  0
 17 19  1  0  0  0  0
 17 20  1  0  0  0  0
 20 21  1  0  0  0  0
 21 22  1  0  0  0  0
 22 23  1  0  0  0  0
 22 66  2  0  0  0  0
 23 24  1  0  0  0  0
 23 65  1  0  0  0  0
 24 25  1  0  0  0  0
 25 26  1  0  0  0  0
 25 63  1  0  0  0  0
 26 27  1  0  0  0  0
 26 62  2  0  0  0  0
 27 28  1  0  0  0  0
 27 55  1  0  0  0  0
 28 29  1  0  0  0  0
 29 30  1  0  0  0  0
 29 54  2  0  0  0  0
 30 31  1  0  0  0  0
 30 34  1  0  0  0  0
 31 32  1  0  0  0  0
 31 33  1  0  0  0  0
 34 35  1  0  0  0  0
 34 53  1  0  0  0  0
 35 36  1  0  0  0  0
 35 52  2  0  0  0  0
 36 37  1  0  0  0  0
 36 51  1  0  0  0  0
 36 73  1  0  0  0  0
 37 38  1  0  0  0  0
 38 39  1  0  0  0  0
 39 40  1  0  0  0  0
 39 50  1  0  0  0  0
 40 41  1  0  0  0  0
 40 49  2  0  0  0  0
 42 43  1  0  0  0  0
 43 44  1  0  0  0  0
 43 47  1  0  0  0  0
 43 48  1  0  0  0  0
 44 45  1  0  0  0  0
 44 46  1  0  0  0  0
 50 51  1  0  0  0  0
 55 56  1  0  0  0  0
 56 57  1  0  0  0  0
 56 61  1  0  0  0  0
 57 58  1  0  0  0  0
 58 59  1  0  0  0  0
 58 71  1  0  0  0  0
 59 60  1  0  0  0  0
 60 61  1  0  0  0  0
 63 64  1  0  0  0  0
 64 65  1  0  0  0  0
 67 68  2  0  0  0  0
 67 72  1  0  0  0  0
 68 69  1  0  0  0  0
 69 70  2  0  0  0  0
 70 71  1  0  0  0  0
 71 72  2  0  0  0  0
 41 42  3  0  0  0  0
  1 74  1  0  0  0  0
  1 75  1  0  0  0  0
  1 76  1  0  0  0  0
  2 77  1  0  0  0  0
  4 78  1  0  0  0  0
  4 79  1  0  0  0  0
  4 80  1  0  0  0  0
  7 81  1  0  0  0  0
  8 82  1  0  0  0  0
  9 83  1  0  0  0  0
 13 84  1  0  0  0  0
 13 85  1  0  0  0  0
 14 86  1  0  0  0  0
 14 87  1  0  0  0  0
 14 88  1  0  0  0  0
 16 89  1  0  0  0  0
 16 90  1  0  0  0  0
 18 91  1  0  0  0  0
 18 92  1  0  0  0  0
 18 93  1  0  0  0  0
 19 94  1  0  0  0  0
 19 95  1  0  0  0  0
 19 96  1  0  0  0  0
 20 97  1  0  0  0  0
 20 98  1  0  0  0  0
 23 99  1  0  0  0  0
 24100  1  0  0  0  0
 27101  1  0  0  0  0
 28102  1  0  0  0  0
 30103  1  0  0  0  0
 31104  1  0  0  0  0
 32105  1  0  0  0  0
 32106  1  0  0  0  0
 32107  1  0  0  0  0
 33108  1  0  0  0  0
 33109  1  0  0  0  0
 33110  1  0  0  0  0
 37111  1  0  0  0  0
 37112  1  0  0  0  0
 38113  1  0  0  0  0
 38114  1  0  0  0  0
 45115  1  0  0  0  0
 45116  1  0  0  0  0
 45117  1  0  0  0  0
 46118  1  0  0  0  0
 46119  1  0  0  0  0
 46120  1  0  0  0  0
 47121  1  0  0  0  0
 47122  1  0  0  0  0
 47123  1  0  0  0  0
 48124  1  0  0  0  0
 48125  1  0  0  0  0
 48126  1  0  0  0  0
 50127  1  0  0  0  0
 50128  1  0  0  0  0
 51129  1  0  0  0  0
 51130  1  0  0  0  0
 53131  1  0  0  0  0
 53132  1  0  0  0  0
 53133  1  0  0  0  0
 55134  1  0  0  0  0
 55135  1  0  0  0  0
 56136  1  0  0  0  0
 57137  1  0  0  0  0
 57138  1  0  0  0  0
 59139  1  0  0  0  0
 59140  1  0  0  0  0
 60141  1  0  0  0  0
 60142  1  0  0  0  0
 63143  1  0  0  0  0
 63144  1  0  0  0  0
 64145  1  0  0  0  0
 64146  1  0  0  0  0
 65147  1  0  0  0  0
 65148  1  0  0  0  0
 69149  1  0  0  0  0
 70150  1  0  0  0  0
 72151  1  0  0  0  0
M  END
$$$$
