 energy: -221.286246322854 gnorm: 0.000409941244 xtb: 6.7.1 (edcfbbe)
          08232517223D

151157  0     0  0            999 V2000
    0.8018   -5.1224    6.4710 C   0  0  0  0  0  0  0  0  0  0  0  0
    0.9474   -4.2500    5.2233 C   0  0  0  0  0  0  0  0  0  0  0  0
    0.8514   -2.8628    5.5198 O   0  0  0  0  0  0  0  0  0  0  0  0
    2.0003   -2.3064    6.1007 C   0  0  0  0  0  0  0  0  0  0  0  0
   -0.1630   -4.5540    4.2354 C   0  0  0  0  0  0  0  0  0  0  0  0
   -1.3656   -4.7324    4.7567 N   0  0  0  0  0  0  0  0  0  0  0  0
   -2.3925   -4.9514    3.9584 C   0  0  0  0  0  0  0  0  0  0  0  0
   -2.2773   -5.0226    2.5790 C   0  0  0  0  0  0  0  0  0  0  0  0
   -1.0214   -4.8548    2.0253 C   0  0  0  0  0  0  0  0  0  0  0  0
    0.0705   -4.6071    2.8542 C   0  0  0  0  0  0  0  0  0  0  0  0
    1.3920   -4.3996    2.2531 C   0  0  0  0  0  0  0  0  0  0  0  0
    2.4108   -5.3197    2.3911 N   0  0  0  0  0  0  0  0  0  0  0  0
    2.2763   -6.6571    2.9128 C   0  0  0  0  0  0  0  0  0  0  0  0
    3.2046   -6.9466    4.0916 C   0  0  0  0  0  0  0  0  0  0  0  0
    1.8061   -3.3330    1.4883 C   0  0  0  0  0  0  0  0  0  0  0  0
    1.0217   -2.1787    0.9412 C   0  0  0  0  0  0  0  0  0  0  0  0
    0.8780   -0.9045    1.8057 C   0  0  0  0  0  0  0  0  0  0  0  0
    0.3182    0.2090    0.9133 C   0  0  0  0  0  0  0  0  0  0  0  0
   -0.1020   -1.1498    2.9533 C   0  0  0  0  0  0  0  0  0  0  0  0
    2.2341   -0.4769    2.4094 C   0  0  0  0  0  0  0  0  0  0  0  0
    2.9596    0.4857    1.6300 O   0  0  0  0  0  0  0  0  0  0  0  0
    2.8732    1.7557    2.0149 C   0  0  0  0  0  0  0  0  0  0  0  0
    3.7765    2.6592    1.1774 C   0  0  0  0  0  0  0  0  0  0  0  0
    3.3921    2.6636   -0.2299 N   0  0  0  0  0  0  0  0  0  0  0  0
    4.3333    3.3789   -0.9799 N   0  0  0  0  0  0  0  0  0  0  0  0
    5.4557    2.8835   -1.5459 C   0  0  0  0  0  0  0  0  0  0  0  0
    5.6324    1.3546   -1.4847 C   0  0  0  0  0  0  0  0  0  0  0  0
    5.2840    0.7822   -2.7688 N   0  0  0  0  0  0  0  0  0  0  0  0
    4.0300    0.4150   -3.0604 C   0  0  0  0  0  0  0  0  0  0  0  0
    3.8382   -0.1609   -4.4669 C   0  0  0  0  0  0  0  0  0  0  0  0
    3.4509    0.9240   -5.4848 C   0  0  0  0  0  0  0  0  0  0  0  0
    3.3821    0.3155   -6.8857 C   0  0  0  0  0  0  0  0  0  0  0  0
    4.4726    2.0609   -5.4744 C   0  0  0  0  0  0  0  0  0  0  0  0
    2.8805   -1.2662   -4.3728 N   0  0  0  0  0  0  0  0  0  0  0  0
    3.4220   -2.4392   -3.9967 C   0  0  0  0  0  0  0  0  0  0  0  0
    2.5260   -3.6598   -3.7167 C   0  0  0  0  0  0  0  0  0  0  0  0
    1.8242   -3.5294   -2.3621 C   0  0  0  0  0  0  0  0  0  0  0  0
    1.0003   -4.7853   -2.0716 C   0  0  0  0  0  0  0  0  0  0  0  0
    1.8590   -5.9426   -2.0994 N   0  0  0  0  0  0  0  0  0  0  0  0
    2.0384   -6.6806   -0.9808 C   0  0  0  0  0  0  0  0  0  0  0  0
    3.1018   -7.6531   -1.0507 C   0  0  0  0  0  0  0  0  0  0  0  0
    3.9821   -8.4637   -0.9223 C   0  0  0  0  0  0  0  0  0  0  0  0
    5.1097   -9.3913   -0.8835 C   0  0  0  0  0  0  0  0  0  0  0  0
    4.6377  -10.6725   -0.3487 N   0  0  0  0  0  0  0  0  0  0  0  0
    5.6378  -11.7142   -0.2736 C   0  0  0  0  0  0  0  0  0  0  0  0
    3.9165  -10.5692    0.9026 C   0  0  0  0  0  0  0  0  0  0  0  0
    6.2287   -8.7246   -0.0553 C   0  0  0  0  0  0  0  0  0  0  0  0
    5.5815   -9.5698   -2.3373 C   0  0  0  0  0  0  0  0  0  0  0  0
    1.3608   -6.5426    0.0239 O   0  0  0  0  0  0  0  0  0  0  0  0
    2.5388   -6.1482   -3.3526 C   0  0  0  0  0  0  0  0  0  0  0  0
    3.3837   -4.9289   -3.7191 C   0  0  0  0  0  0  0  0  0  0  0  0
    4.6314   -2.5711   -3.8637 O   0  0  0  0  0  0  0  0  0  0  0  0
    1.4727   -0.9312   -4.3610 C   0  0  0  0  0  0  0  0  0  0  0  0
    3.1119    0.5129   -2.2586 O   0  0  0  0  0  0  0  0  0  0  0  0
    7.0726    1.0109   -1.1084 C   0  0  0  0  0  0  0  0  0  0  0  0
    7.3417   -0.4970   -0.9918 C   0  0  0  0  0  0  0  0  0  0  0  0
    6.1075   -1.2718   -0.5289 C   0  0  0  0  0  0  0  0  0  0  0  0
    6.4097   -2.6817   -0.3919 N   0  0  0  0  0  0  0  0  0  0  0  0
    6.9046   -3.1983   -1.6633 C   0  0  0  0  0  0  0  0  0  0  0  0
    8.0992   -2.3627   -2.1256 C   0  0  0  0  0  0  0  0  0  0  0  0
    7.7743   -0.9956   -2.2437 O   0  0  0  0  0  0  0  0  0  0  0  0
    6.2531    3.5895   -2.1367 O   0  0  0  0  0  0  0  0  0  0  0  0
    4.2267    4.7973   -0.6915 C   0  0  0  0  0  0  0  0  0  0  0  0
    4.5680    5.0103    0.7859 C   0  0  0  0  0  0  0  0  0  0  0  0
    3.6921    4.1119    1.6589 C   0  0  0  0  0  0  0  0  0  0  0  0
    2.2262    2.1505    2.9482 O   0  0  0  0  0  0  0  0  0  0  0  0
    3.1619   -3.6087    1.1391 C   0  0  0  0  0  0  0  0  0  0  0  0
    3.4881   -4.8731    1.6759 C   0  0  0  0  0  0  0  0  0  0  0  0
    4.7278   -5.4451    1.4093 C   0  0  0  0  0  0  0  0  0  0  0  0
    5.6465   -4.7170    0.6868 C   0  0  0  0  0  0  0  0  0  0  0  0
    5.3664   -3.4232    0.2108 C   0  0  0  0  0  0  0  0  0  0  0  0
    4.1063   -2.8863    0.4131 C   0  0  0  0  0  0  0  0  0  0  0  0
    1.5703   -3.7929   -4.7273 F   0  0  0  0  0  0  0  0  0  0  0  0
   -0.1363   -4.8767    6.9591 H   0  0  0  0  0  0  0  0  0  0  0  0
    0.7846   -6.1712    6.1867 H   0  0  0  0  0  0  0  0  0  0  0  0
    1.6259   -4.9567    7.1610 H   0  0  0  0  0  0  0  0  0  0  0  0
    1.9214   -4.4278    4.7422 H   0  0  0  0  0  0  0  0  0  0  0  0
    2.1802   -2.6892    7.1111 H   0  0  0  0  0  0  0  0  0  0  0  0
    2.8888   -2.4981    5.4841 H   0  0  0  0  0  0  0  0  0  0  0  0
    1.8231   -1.2337    6.1540 H   0  0  0  0  0  0  0  0  0  0  0  0
   -3.3461   -5.0834    4.4531 H   0  0  0  0  0  0  0  0  0  0  0  0
   -3.1399   -5.2147    1.9598 H   0  0  0  0  0  0  0  0  0  0  0  0
   -0.8662   -4.9382    0.9601 H   0  0  0  0  0  0  0  0  0  0  0  0
    1.2360   -6.7967    3.2148 H   0  0  0  0  0  0  0  0  0  0  0  0
    2.4868   -7.3601    2.0995 H   0  0  0  0  0  0  0  0  0  0  0  0
    2.9567   -6.3305    4.9508 H   0  0  0  0  0  0  0  0  0  0  0  0
    3.1039   -7.9905    4.3781 H   0  0  0  0  0  0  0  0  0  0  0  0
    4.2407   -6.7576    3.8257 H   0  0  0  0  0  0  0  0  0  0  0  0
    1.5060   -1.8815    0.0088 H   0  0  0  0  0  0  0  0  0  0  0  0
    0.0115   -2.5176    0.6992 H   0  0  0  0  0  0  0  0  0  0  0  0
    0.2088    1.1314    1.4790 H   0  0  0  0  0  0  0  0  0  0  0  0
    0.9704    0.3995    0.0629 H   0  0  0  0  0  0  0  0  0  0  0  0
   -0.6612   -0.0789    0.5379 H   0  0  0  0  0  0  0  0  0  0  0  0
    0.2851   -1.8787    3.6574 H   0  0  0  0  0  0  0  0  0  0  0  0
   -0.2911   -0.2231    3.4906 H   0  0  0  0  0  0  0  0  0  0  0  0
   -1.0501   -1.5183    2.5675 H   0  0  0  0  0  0  0  0  0  0  0  0
    2.0674   -0.0389    3.3975 H   0  0  0  0  0  0  0  0  0  0  0  0
    2.8962   -1.3403    2.5002 H   0  0  0  0  0  0  0  0  0  0  0  0
    4.8086    2.2803    1.3163 H   0  0  0  0  0  0  0  0  0  0  0  0
    3.1964    1.7508   -0.6371 H   0  0  0  0  0  0  0  0  0  0  0  0
    4.9497    0.9375   -0.7411 H   0  0  0  0  0  0  0  0  0  0  0  0
    6.0426    0.6230   -3.4131 H   0  0  0  0  0  0  0  0  0  0  0  0
    4.7848   -0.6113   -4.7858 H   0  0  0  0  0  0  0  0  0  0  0  0
    2.4797    1.3449   -5.2108 H   0  0  0  0  0  0  0  0  0  0  0  0
    2.7301   -0.5533   -6.9182 H   0  0  0  0  0  0  0  0  0  0  0  0
    3.0127    1.0507   -7.5966 H   0  0  0  0  0  0  0  0  0  0  0  0
    4.3743    0.0016   -7.2028 H   0  0  0  0  0  0  0  0  0  0  0  0
    4.4926    2.5771   -4.5182 H   0  0  0  0  0  0  0  0  0  0  0  0
    5.4712    1.6864   -5.6894 H   0  0  0  0  0  0  0  0  0  0  0  0
    4.2134    2.7867   -6.2415 H   0  0  0  0  0  0  0  0  0  0  0  0
    2.5958   -3.4177   -1.5977 H   0  0  0  0  0  0  0  0  0  0  0  0
    1.1761   -2.6552   -2.3345 H   0  0  0  0  0  0  0  0  0  0  0  0
    0.5564   -4.7221   -1.0767 H   0  0  0  0  0  0  0  0  0  0  0  0
    0.2078   -4.8952   -2.8212 H   0  0  0  0  0  0  0  0  0  0  0  0
    6.4000  -11.5338    0.5003 H   0  0  0  0  0  0  0  0  0  0  0  0
    5.1306  -12.6486   -0.0327 H   0  0  0  0  0  0  0  0  0  0  0  0
    6.1305  -11.8385   -1.2340 H   0  0  0  0  0  0  0  0  0  0  0  0
    4.5688  -10.3696    1.7675 H   0  0  0  0  0  0  0  0  0  0  0  0
    3.1708   -9.7800    0.8334 H   0  0  0  0  0  0  0  0  0  0  0  0
    3.4033  -11.5147    1.0794 H   0  0  0  0  0  0  0  0  0  0  0  0
    5.9217   -8.6136    0.9818 H   0  0  0  0  0  0  0  0  0  0  0  0
    7.1344   -9.3251   -0.0944 H   0  0  0  0  0  0  0  0  0  0  0  0
    6.4439   -7.7378   -0.4572 H   0  0  0  0  0  0  0  0  0  0  0  0
    6.5564  -10.0478   -2.3787 H   0  0  0  0  0  0  0  0  0  0  0  0
    4.8622  -10.1743   -2.8836 H   0  0  0  0  0  0  0  0  0  0  0  0
    5.6617   -8.5966   -2.8165 H   0  0  0  0  0  0  0  0  0  0  0  0
    3.1680   -7.0367   -3.2802 H   0  0  0  0  0  0  0  0  0  0  0  0
    1.7850   -6.3108   -4.1338 H   0  0  0  0  0  0  0  0  0  0  0  0
    3.8250   -5.0633   -4.7073 H   0  0  0  0  0  0  0  0  0  0  0  0
    4.1889   -4.7960   -2.9968 H   0  0  0  0  0  0  0  0  0  0  0  0
    1.2618   -0.2792   -3.5101 H   0  0  0  0  0  0  0  0  0  0  0  0
    1.2071   -0.4124   -5.2809 H   0  0  0  0  0  0  0  0  0  0  0  0
    0.8585   -1.8204   -4.3018 H   0  0  0  0  0  0  0  0  0  0  0  0
    7.7462    1.4292   -1.8583 H   0  0  0  0  0  0  0  0  0  0  0  0
    7.2962    1.4883   -0.1530 H   0  0  0  0  0  0  0  0  0  0  0  0
    8.1520   -0.6600   -0.2595 H   0  0  0  0  0  0  0  0  0  0  0  0
    5.7831   -0.8923    0.4428 H   0  0  0  0  0  0  0  0  0  0  0  0
    5.3159   -1.1333   -1.2786 H   0  0  0  0  0  0  0  0  0  0  0  0
    7.2125   -4.2370   -1.5391 H   0  0  0  0  0  0  0  0  0  0  0  0
    6.1253   -3.1400   -2.4370 H   0  0  0  0  0  0  0  0  0  0  0  0
    8.9303   -2.4790   -1.4121 H   0  0  0  0  0  0  0  0  0  0  0  0
    8.4215   -2.6855   -3.1166 H   0  0  0  0  0  0  0  0  0  0  0  0
    4.9190    5.3299   -1.3431 H   0  0  0  0  0  0  0  0  0  0  0  0
    3.1999    5.1054   -0.8968 H   0  0  0  0  0  0  0  0  0  0  0  0
    5.6214    4.7645    0.9414 H   0  0  0  0  0  0  0  0  0  0  0  0
    4.4189    6.0558    1.0543 H   0  0  0  0  0  0  0  0  0  0  0  0
    2.6504    4.4264    1.5891 H   0  0  0  0  0  0  0  0  0  0  0  0
    3.9954    4.1724    2.7039 H   0  0  0  0  0  0  0  0  0  0  0  0
    4.9767   -6.4358    1.7549 H   0  0  0  0  0  0  0  0  0  0  0  0
    6.6250   -5.1337    0.5007 H   0  0  0  0  0  0  0  0  0  0  0  0
    3.8304   -1.9139    0.0393 H   0  0  0  0  0  0  0  0  0  0  0  0
  1  2  1  0  0  0  0
  2  3  1  0  0  0  0
  2  5  1  0  0  0  0
  3  4  1  0  0  0  0
  5  6  2  0  0  0  0
  5 10  1  0  0  0  0
  6  7  1  0  0  0  0
  7  8  2  0  0  0  0
  8  9  1  0  0  0  0
  9 10  2  0  0  0  0
 10 11  1  0  0  0  0
 11 12  1  0  0  0  0
 11 15  2  0  0  0  0
 12 13  1  0  0  0  0
 12 68  1  0  0  0  0
 13 14  1  0  0  0  0
 15 16  1  0  0  0  0
 15 67  1  0  0  0  0
 16 17  1  0  0  0  0
 17 18  1  0  0  0  0
 17 19  1  0  0  0  0
 17 20  1  0  0  0  0
 20 21  1  0  0  0  0
 21 22  1  0  0  0  0
 22 23  1  0  0  0  0
 22 66  2  0  0  0  0
 23 24  1  0  0  0  0
 23 65  1  0  0  0  0
 24 25  1  0  0  0  0
 25 26  1  0  0  0  0
 25 63  1  0  0  0  0
 26 27  1  0  0  0  0
 26 62  2  0  0  0  0
 27 28  1  0  0  0  0
 27 55  1  0  0  0  0
 28 29  1  0  0  0  0
 29 30  1  0  0  0  0
 29 54  2  0  0  0  0
 30 31  1  0  0  0  0
 30 34  1  0  0  0  0
 31 32  1  0  0  0  0
 31 33  1  0  0  0  0
 34 35  1  0  0  0  0
 34 53  1  0  0  0  0
 35 36  1  0  0  0  0
 35 52  2  0  0  0  0
 36 37  1  0  0  0  0
 36 51  1  0  0  0  0
 36 73  1  0  0  0  0
 37 38  1  0  0  0  0
 38 39  1  0  0  0  0
 39 40  1  0  0  0  0
 39 50  1  0  0  0  0
 40 41  1  0  0  0  0
 40 49  2  0  0  0  0
 42 43  1  0  0  0  0
 43 44  1  0  0  0  0
 43 47  1  0  0  0  0
 43 48  1  0  0  0  0
 44 45  1  0  0  0  0
 44 46  1  0  0  0  0
 50 51  1  0  0  0  0
 55 56  1  0  0  0  0
 56 57  1  0  0  0  0
 56 61  1  0  0  0  0
 57 58  1  0  0  0  0
 58 59  1  0  0  0  0
 58 71  1  0  0  0  0
 59 60  1  0  0  0  0
 60 61  1  0  0  0  0
 63 64  1  0  0  0  0
 64 65  1  0  0  0  0
 67 68  2  0  0  0  0
 67 72  1  0  0  0  0
 68 69  1  0  0  0  0
 69 70  2  0  0  0  0
 70 71  1  0  0  0  0
 71 72  2  0  0  0  0
 41 42  3  0  0  0  0
  1 74  1  0  0  0  0
  1 75  1  0  0  0  0
  1 76  1  0  0  0  0
  2 77  1  0  0  0  0
  4 78  1  0  0  0  0
  4 79  1  0  0  0  0
  4 80  1  0  0  0  0
  7 81  1  0  0  0  0
  8 82  1  0  0  0  0
  9 83  1  0  0  0  0
 13 84  1  0  0  0  0
 13 85  1  0  0  0  0
 14 86  1  0  0  0  0
 14 87  1  0  0  0  0
 14 88  1  0  0  0  0
 16 89  1  0  0  0  0
 16 90  1  0  0  0  0
 18 91  1  0  0  0  0
 18 92  1  0  0  0  0
 18 93  1  0  0  0  0
 19 94  1  0  0  0  0
 19 95  1  0  0  0  0
 19 96  1  0  0  0  0
 20 97  1  0  0  0  0
 20 98  1  0  0  0  0
 23 99  1  0  0  0  0
 24100  1  0  0  0  0
 27101  1  0  0  0  0
 28102  1  0  0  0  0
 30103  1  0  0  0  0
 31104  1  0  0  0  0
 32105  1  0  0  0  0
 32106  1  0  0  0  0
 32107  1  0  0  0  0
 33108  1  0  0  0  0
 33109  1  0  0  0  0
 33110  1  0  0  0  0
 37111  1  0  0  0  0
 37112  1  0  0  0  0
 38113  1  0  0  0  0
 38114  1  0  0  0  0
 45115  1  0  0  0  0
 45116  1  0  0  0  0
 45117  1  0  0  0  0
 46118  1  0  0  0  0
 46119  1  0  0  0  0
 46120  1  0  0  0  0
 47121  1  0  0  0  0
 47122  1  0  0  0  0
 47123  1  0  0  0  0
 48124  1  0  0  0  0
 48125  1  0  0  0  0
 48126  1  0  0  0  0
 50127  1  0  0  0  0
 50128  1  0  0  0  0
 51129  1  0  0  0  0
 51130  1  0  0  0  0
 53131  1  0  0  0  0
 53132  1  0  0  0  0
 53133  1  0  0  0  0
 55134  1  0  0  0  0
 55135  1  0  0  0  0
 56136  1  0  0  0  0
 57137  1  0  0  0  0
 57138  1  0  0  0  0
 59139  1  0  0  0  0
 59140  1  0  0  0  0
 60141  1  0  0  0  0
 60142  1  0  0  0  0
 63143  1  0  0  0  0
 63144  1  0  0  0  0
 64145  1  0  0  0  0
 64146  1  0  0  0  0
 65147  1  0  0  0  0
 65148  1  0  0  0  0
 69149  1  0  0  0  0
 70150  1  0  0  0  0
 72151  1  0  0  0  0
M  END
$$$$
