mol_bioactive_20
     RDKit          3D

151157  0  0  0  0  0  0  0  0999 V2000
    1.1563    4.7191    3.6666 C   0  0  0  0  0  0  0  0  0  0  0  0
    1.4991    3.8475    4.8700 C   0  0  2  0  0  0  0  0  0  0  0  0
    1.6730    2.4812    4.4783 O   0  0  0  0  0  0  0  0  0  0  0  0
    2.9950    2.1835    4.0532 C   0  0  0  0  0  0  0  0  0  0  0  0
    0.4733    4.0124    5.9855 C   0  0  0  0  0  0  0  0  0  0  0  0
    0.9062    4.8133    7.0100 N   0  0  0  0  0  0  0  0  0  0  0  0
    0.0601    5.0748    8.0253 C   0  0  0  0  0  0  0  0  0  0  0  0
   -1.2293    4.5917    8.0874 C   0  0  0  0  0  0  0  0  0  0  0  0
   -1.6721    3.7870    7.0441 C   0  0  0  0  0  0  0  0  0  0  0  0
   -0.8259    3.4734    5.9693 C   0  0  0  0  0  0  0  0  0  0  0  0
   -1.3636    2.6199    4.9004 C   0  0  0  0  0  0  0  0  0  0  0  0
   -2.1769    3.0936    3.8783 N   0  0  0  0  0  0  0  0  0  0  0  0
   -2.6472    4.4655    3.7269 C   0  0  0  0  0  0  0  0  0  0  0  0
   -4.0642    4.6508    4.2455 C   0  0  0  0  0  0  0  0  0  0  0  0
   -1.2099    1.2464    4.7058 C   0  0  0  0  0  0  0  0  0  0  0  0
   -0.4269    0.2646    5.5548 C   0  0  0  0  0  0  0  0  0  0  0  0
   -1.2149   -0.5600    6.6160 C   0  0  0  0  0  0  0  0  0  0  0  0
   -1.9414    0.3732    7.6016 C   0  0  0  0  0  0  0  0  0  0  0  0
   -0.1812   -1.3779    7.4241 C   0  0  0  0  0  0  0  0  0  0  0  0
   -2.2673   -1.5176    6.0009 C   0  0  0  0  0  0  0  0  0  0  0  0
   -1.6865   -2.6876    5.3795 O   0  0  0  0  0  0  0  0  0  0  0  0
   -1.9534   -3.8817    6.0048 C   0  0  0  0  0  0  0  0  0  0  0  0
   -1.4705   -5.0791    5.1723 C   0  0  1  0  0  0  0  0  0  0  0  0
   -0.1069   -4.8584    4.6598 N   0  0  0  0  0  0  0  0  0  0  0  0
    0.3338   -5.9618    3.8804 N   0  0  0  0  0  0  0  0  0  0  0  0
    0.5553   -5.9567    2.4955 C   0  0  0  0  0  0  0  0  0  0  0  0
    0.0407   -4.7453    1.6937 C   0  0  1  0  0  0  0  0  0  0  0  0
    0.9805   -4.3646    0.6507 N   0  0  0  0  0  0  0  0  0  0  0  0
    1.9987   -3.4721    0.9102 C   0  0  0  0  0  0  0  0  0  0  0  0
    2.8960   -3.1233   -0.3046 C   0  0  2  0  0  0  0  0  0  0  0  0
    4.2237   -3.9244   -0.2773 C   0  0  0  0  0  0  0  0  0  0  0  0
    5.0804   -3.6058   -1.5099 C   0  0  0  0  0  0  0  0  0  0  0  0
    3.9783   -5.4387   -0.2364 C   0  0  0  0  0  0  0  0  0  0  0  0
    3.0482   -1.6388   -0.3526 N   0  0  0  0  0  0  0  0  0  0  0  0
    2.0461   -0.9395   -1.0355 C   0  0  0  0  0  0  0  0  0  0  0  0
    1.9255    0.6021   -0.9009 C   0  0  0  0  0  0  0  0  0  0  0  0
    1.0038    1.1372   -2.0089 C   0  0  0  0  0  0  0  0  0  0  0  0
    0.7413    2.6242   -1.8511 C   0  0  0  0  0  0  0  0  0  0  0  0
    0.2553    2.9343   -0.5129 N   0  0  0  0  0  0  0  0  0  0  0  0
   -0.6443    3.9663   -0.2669 C   0  0  0  0  0  0  0  0  0  0  0  0
   -1.5886    4.3126   -1.3067 C   0  0  0  0  0  0  0  0  0  0  0  0
   -2.4522    4.5726   -2.1017 C   0  0  0  0  0  0  0  0  0  0  0  0
   -3.5823    4.8659   -3.0135 C   0  0  0  0  0  0  0  0  0  0  0  0
   -4.0589    6.2717   -2.8911 N   0  0  0  0  0  0  0  0  0  0  0  0
   -3.0873    7.2767   -3.3325 C   0  0  0  0  0  0  0  0  0  0  0  0
   -4.5459    6.6277   -1.5537 C   0  0  0  0  0  0  0  0  0  0  0  0
   -4.7323    3.8811   -2.6872 C   0  0  0  0  0  0  0  0  0  0  0  0
   -3.1411    4.5550   -4.4618 C   0  0  0  0  0  0  0  0  0  0  0  0
   -0.7321    4.5720    0.7936 O   0  0  0  0  0  0  0  0  0  0  0  0
    1.0857    2.4677    0.5853 C   0  0  0  0  0  0  0  0  0  0  0  0
    1.3684    0.9747    0.4772 C   0  0  0  0  0  0  0  0  0  0  0  0
    1.2143   -1.5559   -1.7159 O   0  0  0  0  0  0  0  0  0  0  0  0
    3.9837   -1.0095    0.5801 C   0  0  0  0  0  0  0  0  0  0  0  0
    2.1671   -2.9941    2.0323 O   0  0  0  0  0  0  0  0  0  0  0  0
   -1.3498   -5.0879    1.1212 C   0  0  0  0  0  0  0  0  0  0  0  0
   -2.0879   -3.9141    0.4513 C   0  0  1  0  0  0  0  0  0  0  0  0
   -2.0116   -2.6413    1.3065 C   0  0  0  0  0  0  0  0  0  0  0  0
   -2.6674   -1.4819    0.6698 N   0  0  0  0  0  0  0  0  0  0  0  0
   -2.1668   -1.2924   -0.7178 C   0  0  0  0  0  0  0  0  0  0  0  0
   -2.2259   -2.6140   -1.5078 C   0  0  0  0  0  0  0  0  0  0  0  0
   -1.5228   -3.6846   -0.8509 O   0  0  0  0  0  0  0  0  0  0  0  0
    1.0584   -6.9222    1.9067 O   0  0  0  0  0  0  0  0  0  0  0  0
    0.4959   -7.1935    4.6552 C   0  0  0  0  0  0  0  0  0  0  0  0
   -0.8536   -7.5582    5.2768 C   0  0  0  0  0  0  0  0  0  0  0  0
   -1.4582   -6.3633    6.0287 C   0  0  0  0  0  0  0  0  0  0  0  0
   -2.5777   -3.9937    7.0550 O   0  0  0  0  0  0  0  0  0  0  0  0
   -1.8345    0.9401    3.4549 C   0  0  0  0  0  0  0  0  0  0  0  0
   -2.4428    2.0883    2.9675 C   0  0  0  0  0  0  0  0  0  0  0  0
   -3.1552    2.0821    1.7573 C   0  0  0  0  0  0  0  0  0  0  0  0
   -3.2214    0.8845    1.0232 C   0  0  0  0  0  0  0  0  0  0  0  0
   -2.5937   -0.2912    1.4484 C   0  0  0  0  0  0  0  0  0  0  0  0
   -1.9205   -0.2370    2.6851 C   0  0  0  0  0  0  0  0  0  0  0  0
    3.1343    1.2254   -1.0674 F   0  0  0  0  0  0  0  0  0  0  0  0
    1.0028    5.7634    3.9570 H   0  0  0  0  0  0  0  0  0  0  0  0
    1.9524    4.6865    2.9174 H   0  0  0  0  0  0  0  0  0  0  0  0
    0.2514    4.3681    3.1689 H   0  0  0  0  0  0  0  0  0  0  0  0
    2.4553    4.2087    5.2736 H   0  0  0  0  0  0  0  0  0  0  0  0
    3.7062    2.3475    4.8676 H   0  0  0  0  0  0  0  0  0  0  0  0
    3.0332    1.1277    3.7696 H   0  0  0  0  0  0  0  0  0  0  0  0
    3.2705    2.7833    3.1824 H   0  0  0  0  0  0  0  0  0  0  0  0
    0.4611    5.7077    8.8109 H   0  0  0  0  0  0  0  0  0  0  0  0
   -1.8741    4.8310    8.9235 H   0  0  0  0  0  0  0  0  0  0  0  0
   -2.6851    3.3929    7.0726 H   0  0  0  0  0  0  0  0  0  0  0  0
   -1.9592    5.1372    4.2479 H   0  0  0  0  0  0  0  0  0  0  0  0
   -2.5956    4.7246    2.6654 H   0  0  0  0  0  0  0  0  0  0  0  0
   -4.1375    4.3996    5.3078 H   0  0  0  0  0  0  0  0  0  0  0  0
   -4.3784    5.6919    4.1197 H   0  0  0  0  0  0  0  0  0  0  0  0
   -4.7725    4.0152    3.7041 H   0  0  0  0  0  0  0  0  0  0  0  0
    0.1013   -0.4259    4.8839 H   0  0  0  0  0  0  0  0  0  0  0  0
    0.3667    0.8203    6.0707 H   0  0  0  0  0  0  0  0  0  0  0  0
   -2.3954   -0.1962    8.4223 H   0  0  0  0  0  0  0  0  0  0  0  0
   -1.2464    1.0887    8.0535 H   0  0  0  0  0  0  0  0  0  0  0  0
   -2.7489    0.9254    7.1104 H   0  0  0  0  0  0  0  0  0  0  0  0
   -0.6721   -2.0080    8.1740 H   0  0  0  0  0  0  0  0  0  0  0  0
    0.4145   -2.0283    6.7742 H   0  0  0  0  0  0  0  0  0  0  0  0
    0.5167   -0.7179    7.9534 H   0  0  0  0  0  0  0  0  0  0  0  0
   -2.9962   -1.8038    6.7695 H   0  0  0  0  0  0  0  0  0  0  0  0
   -2.8624   -1.0097    5.2375 H   0  0  0  0  0  0  0  0  0  0  0  0
   -2.1767   -5.1908    4.3417 H   0  0  0  0  0  0  0  0  0  0  0  0
    0.0223   -3.9429    4.2293 H   0  0  0  0  0  0  0  0  0  0  0  0
   -0.0389   -3.8986    2.3678 H   0  0  0  0  0  0  0  0  0  0  0  0
    0.8666   -4.7624   -0.2758 H   0  0  0  0  0  0  0  0  0  0  0  0
    2.3573   -3.4361   -1.2085 H   0  0  0  0  0  0  0  0  0  0  0  0
    4.7962   -3.6705    0.6231 H   0  0  0  0  0  0  0  0  0  0  0  0
    6.0196   -4.1692   -1.4842 H   0  0  0  0  0  0  0  0  0  0  0  0
    4.5543   -3.8704   -2.4339 H   0  0  0  0  0  0  0  0  0  0  0  0
    5.3391   -2.5440   -1.5622 H   0  0  0  0  0  0  0  0  0  0  0  0
    3.4909   -5.7389    0.6963 H   0  0  0  0  0  0  0  0  0  0  0  0
    3.3506   -5.7625   -1.0733 H   0  0  0  0  0  0  0  0  0  0  0  0
    4.9251   -5.9872   -0.2929 H   0  0  0  0  0  0  0  0  0  0  0  0
    1.4609    0.9593   -2.9896 H   0  0  0  0  0  0  0  0  0  0  0  0
    0.0415    0.6122   -1.9989 H   0  0  0  0  0  0  0  0  0  0  0  0
    1.6642    3.1974   -2.0019 H   0  0  0  0  0  0  0  0  0  0  0  0
    0.0365    2.9537   -2.6187 H   0  0  0  0  0  0  0  0  0  0  0  0
   -2.1510    7.2378   -2.7656 H   0  0  0  0  0  0  0  0  0  0  0  0
   -2.8597    7.1764   -4.3976 H   0  0  0  0  0  0  0  0  0  0  0  0
   -3.5025    8.2858   -3.2239 H   0  0  0  0  0  0  0  0  0  0  0  0
   -3.7630    6.5782   -0.7894 H   0  0  0  0  0  0  0  0  0  0  0  0
   -4.9435    7.6490   -1.5536 H   0  0  0  0  0  0  0  0  0  0  0  0
   -5.3816    5.9963   -1.2404 H   0  0  0  0  0  0  0  0  0  0  0  0
   -5.0090    3.8952   -1.6270 H   0  0  0  0  0  0  0  0  0  0  0  0
   -5.6277    4.1025   -3.2801 H   0  0  0  0  0  0  0  0  0  0  0  0
   -4.4400    2.8461   -2.9076 H   0  0  0  0  0  0  0  0  0  0  0  0
   -2.9233    3.4875   -4.5893 H   0  0  0  0  0  0  0  0  0  0  0  0
   -3.9252    4.8176   -5.1822 H   0  0  0  0  0  0  0  0  0  0  0  0
   -2.2243    5.0847   -4.7443 H   0  0  0  0  0  0  0  0  0  0  0  0
    2.0178    3.0445    0.5694 H   0  0  0  0  0  0  0  0  0  0  0  0
    0.5913    2.6651    1.5406 H   0  0  0  0  0  0  0  0  0  0  0  0
    0.4438    0.4152    0.6617 H   0  0  0  0  0  0  0  0  0  0  0  0
    2.0632    0.7033    1.2758 H   0  0  0  0  0  0  0  0  0  0  0  0
    3.5841   -1.0584    1.5957 H   0  0  0  0  0  0  0  0  0  0  0  0
    4.9517   -1.5122    0.5476 H   0  0  0  0  0  0  0  0  0  0  0  0
    4.1678    0.0344    0.3364 H   0  0  0  0  0  0  0  0  0  0  0  0
   -1.2494   -5.9062    0.3951 H   0  0  0  0  0  0  0  0  0  0  0  0
   -1.9802   -5.4646    1.9357 H   0  0  0  0  0  0  0  0  0  0  0  0
   -3.1368   -4.2080    0.3089 H   0  0  0  0  0  0  0  0  0  0  0  0
   -2.4698   -2.8566    2.2806 H   0  0  0  0  0  0  0  0  0  0  0  0
   -0.9574   -2.3721    1.4318 H   0  0  0  0  0  0  0  0  0  0  0  0
   -2.7526   -0.5436   -1.2604 H   0  0  0  0  0  0  0  0  0  0  0  0
   -1.1262   -0.9555   -0.6732 H   0  0  0  0  0  0  0  0  0  0  0  0
   -3.2657   -2.9236   -1.6687 H   0  0  0  0  0  0  0  0  0  0  0  0
   -1.7644   -2.4767   -2.4909 H   0  0  0  0  0  0  0  0  0  0  0  0
    0.8529   -8.0152    4.0266 H   0  0  0  0  0  0  0  0  0  0  0  0
    1.2475   -7.0100    5.4320 H   0  0  0  0  0  0  0  0  0  0  0  0
   -1.5481   -7.8610    4.4827 H   0  0  0  0  0  0  0  0  0  0  0  0
   -0.7405   -8.4111    5.9533 H   0  0  0  0  0  0  0  0  0  0  0  0
   -0.8800   -6.1926    6.9479 H   0  0  0  0  0  0  0  0  0  0  0  0
   -2.4784   -6.6134    6.3452 H   0  0  0  0  0  0  0  0  0  0  0  0
   -3.6400    2.9772    1.3817 H   0  0  0  0  0  0  0  0  0  0  0  0
   -3.7961    0.8882    0.1007 H   0  0  0  0  0  0  0  0  0  0  0  0
   -1.4083   -1.0970    3.0943 H   0  0  0  0  0  0  0  0  0  0  0  0
  1  2  1  0
  2  3  1  0
  2  5  1  0
  3  4  1  0
  5  6  2  0
  5 10  1  0
  6  7  1  0
  7  8  2  0
  8  9  1  0
  9 10  2  0
 10 11  1  0
 11 12  1  0
 11 15  2  0
 12 13  1  0
 12 68  1  0
 13 14  1  0
 15 16  1  0
 15 67  1  0
 16 17  1  0
 17 18  1  0
 17 19  1  0
 17 20  1  0
 20 21  1  0
 21 22  1  0
 22 23  1  0
 22 66  2  0
 23 24  1  0
 23 65  1  0
 24 25  1  0
 25 26  1  0
 25 63  1  0
 26 27  1  0
 26 62  2  0
 27 28  1  0
 27 55  1  0
 28 29  1  0
 29 30  1  0
 29 54  2  0
 30 31  1  0
 30 34  1  0
 31 32  1  0
 31 33  1  0
 34 35  1  0
 34 53  1  0
 35 36  1  0
 35 52  2  0
 36 37  1  0
 36 51  1  0
 36 73  1  0
 37 38  1  0
 38 39  1  0
 39 40  1  0
 39 50  1  0
 40 41  1  0
 40 49  2  0
 42 43  1  0
 43 44  1  0
 43 47  1  0
 43 48  1  0
 44 45  1  0
 44 46  1  0
 50 51  1  0
 55 56  1  0
 56 57  1  0
 56 61  1  0
 57 58  1  0
 58 59  1  0
 58 71  1  0
 59 60  1  0
 60 61  1  0
 63 64  1  0
 64 65  1  0
 67 68  2  0
 67 72  1  0
 68 69  1  0
 69 70  2  0
 70 71  1  0
 71 72  2  0
 41 42  3  0
  1 74  1  0
  1 75  1  0
  1 76  1  0
  2 77  1  1
  4 78  1  0
  4 79  1  0
  4 80  1  0
  7 81  1  0
  8 82  1  0
  9 83  1  0
 13 84  1  0
 13 85  1  0
 14 86  1  0
 14 87  1  0
 14 88  1  0
 16 89  1  0
 16 90  1  0
 18 91  1  0
 18 92  1  0
 18 93  1  0
 19 94  1  0
 19 95  1  0
 19 96  1  0
 20 97  1  0
 20 98  1  0
 23 99  1  6
 24100  1  0
 27101  1  1
 28102  1  0
 30103  1  6
 31104  1  0
 32105  1  0
 32106  1  0
 32107  1  0
 33108  1  0
 33109  1  0
 33110  1  0
 37111  1  0
 37112  1  0
 38113  1  0
 38114  1  0
 45115  1  0
 45116  1  0
 45117  1  0
 46118  1  0
 46119  1  0
 46120  1  0
 47121  1  0
 47122  1  0
 47123  1  0
 48124  1  0
 48125  1  0
 48126  1  0
 50127  1  0
 50128  1  0
 51129  1  0
 51130  1  0
 53131  1  0
 53132  1  0
 53133  1  0
 55134  1  0
 55135  1  0
 56136  1  6
 57137  1  0
 57138  1  0
 59139  1  0
 59140  1  0
 60141  1  0
 60142  1  0
 63143  1  0
 63144  1  0
 64145  1  0
 64146  1  0
 65147  1  0
 65148  1  0
 69149  1  0
 70150  1  0
 72151  1  0
M  END
$$$$
