 xtb: 6.7.1 (edcfbbe)
          08232516213D

151157  0     0  0            999 V2000
    0.9022    5.1852    3.8636 C   0  0  0  0  0  0  0  0  0  0  0  0
    1.3066    4.2056    4.9724 C   0  0  0  0  0  0  0  0  0  0  0  0
    1.6622    2.9336    4.4554 O   0  0  0  0  0  0  0  0  0  0  0  0
    3.0214    2.8075    4.1351 C   0  0  0  0  0  0  0  0  0  0  0  0
    0.1889    4.0866    5.9852 C   0  0  0  0  0  0  0  0  0  0  0  0
    0.4236    4.7785    7.0937 N   0  0  0  0  0  0  0  0  0  0  0  0
   -0.4977    4.8507    8.0346 C   0  0  0  0  0  0  0  0  0  0  0  0
   -1.7363    4.2416    7.9195 C   0  0  0  0  0  0  0  0  0  0  0  0
   -1.9832    3.5072    6.7754 C   0  0  0  0  0  0  0  0  0  0  0  0
   -1.0109    3.3957    5.7797 C   0  0  0  0  0  0  0  0  0  0  0  0
   -1.3381    2.5876    4.5952 C   0  0  0  0  0  0  0  0  0  0  0  0
   -2.2475    3.0707    3.6798 N   0  0  0  0  0  0  0  0  0  0  0  0
   -2.8388    4.3827    3.6651 C   0  0  0  0  0  0  0  0  0  0  0  0
   -4.3130    4.3535    4.0677 C   0  0  0  0  0  0  0  0  0  0  0  0
   -0.9799    1.2969    4.2755 C   0  0  0  0  0  0  0  0  0  0  0  0
    0.0068    0.3906    4.9427 C   0  0  0  0  0  0  0  0  0  0  0  0
   -0.5283   -0.5198    6.0712 C   0  0  0  0  0  0  0  0  0  0  0  0
   -1.1189    0.3270    7.1994 C   0  0  0  0  0  0  0  0  0  0  0  0
    0.6405   -1.3416    6.6209 C   0  0  0  0  0  0  0  0  0  0  0  0
   -1.6508   -1.4531    5.5697 C   0  0  0  0  0  0  0  0  0  0  0  0
   -1.2069   -2.6944    5.0033 O   0  0  0  0  0  0  0  0  0  0  0  0
   -1.2562   -3.7622    5.7959 C   0  0  0  0  0  0  0  0  0  0  0  0
   -0.9660   -5.0492    5.0312 C   0  0  0  0  0  0  0  0  0  0  0  0
    0.2886   -5.0173    4.2926 N   0  0  0  0  0  0  0  0  0  0  0  0
    0.3535   -6.1285    3.4426 N   0  0  0  0  0  0  0  0  0  0  0  0
   -0.1561   -6.2061    2.1920 C   0  0  0  0  0  0  0  0  0  0  0  0
   -0.6495   -4.8813    1.5791 C   0  0  0  0  0  0  0  0  0  0  0  0
    0.3649   -4.3819    0.6723 N   0  0  0  0  0  0  0  0  0  0  0  0
    1.3587   -3.5929    1.1003 C   0  0  0  0  0  0  0  0  0  0  0  0
    2.3607   -3.1736    0.0216 C   0  0  0  0  0  0  0  0  0  0  0  0
    3.6196   -4.0549    0.0582 C   0  0  0  0  0  0  0  0  0  0  0  0
    4.5522   -3.6770   -1.0917 C   0  0  0  0  0  0  0  0  0  0  0  0
    3.2317   -5.5290   -0.0555 C   0  0  0  0  0  0  0  0  0  0  0  0
    2.6273   -1.7418    0.1757 N   0  0  0  0  0  0  0  0  0  0  0  0
    1.7895   -0.9332   -0.4978 C   0  0  0  0  0  0  0  0  0  0  0  0
    1.8717    0.5940   -0.3259 C   0  0  0  0  0  0  0  0  0  0  0  0
    1.1431    1.2715   -1.4907 C   0  0  0  0  0  0  0  0  0  0  0  0
    1.1110    2.7869   -1.3003 C   0  0  0  0  0  0  0  0  0  0  0  0
    0.5503    3.1333   -0.0192 N   0  0  0  0  0  0  0  0  0  0  0  0
   -0.5674    3.8666    0.1624 C   0  0  0  0  0  0  0  0  0  0  0  0
   -1.3150    4.1828   -1.0282 C   0  0  0  0  0  0  0  0  0  0  0  0
   -2.1038    4.4320   -1.9036 C   0  0  0  0  0  0  0  0  0  0  0  0
   -3.0709    4.8334   -2.9233 C   0  0  0  0  0  0  0  0  0  0  0  0
   -3.6774    6.1328   -2.5887 N   0  0  0  0  0  0  0  0  0  0  0  0
   -2.7294    7.2323   -2.5925 C   0  0  0  0  0  0  0  0  0  0  0  0
   -4.4175    6.1192   -1.3389 C   0  0  0  0  0  0  0  0  0  0  0  0
   -4.1618    3.7512   -2.9998 C   0  0  0  0  0  0  0  0  0  0  0  0
   -2.3717    4.9116   -4.2897 C   0  0  0  0  0  0  0  0  0  0  0  0
   -0.9527    4.2481    1.2569 O   0  0  0  0  0  0  0  0  0  0  0  0
    1.2471    2.5590    1.1053 C   0  0  0  0  0  0  0  0  0  0  0  0
    1.2338    1.0342    0.9948 C   0  0  0  0  0  0  0  0  0  0  0  0
    0.9342   -1.3814   -1.2504 O   0  0  0  0  0  0  0  0  0  0  0  0
    3.5526   -1.3519    1.2177 C   0  0  0  0  0  0  0  0  0  0  0  0
    1.4502   -3.2260    2.2632 O   0  0  0  0  0  0  0  0  0  0  0  0
   -1.9777   -5.0884    0.8545 C   0  0  0  0  0  0  0  0  0  0  0  0
   -2.5444   -3.8079    0.2207 C   0  0  0  0  0  0  0  0  0  0  0  0
   -2.1695   -2.5522    1.0107 C   0  0  0  0  0  0  0  0  0  0  0  0
   -2.7255   -1.3646    0.3942 N   0  0  0  0  0  0  0  0  0  0  0  0
   -2.2731   -1.2790   -0.9897 C   0  0  0  0  0  0  0  0  0  0  0  0
   -2.6318   -2.5679   -1.7289 C   0  0  0  0  0  0  0  0  0  0  0  0
   -2.0693   -3.7014   -1.1075 O   0  0  0  0  0  0  0  0  0  0  0  0
   -0.1509   -7.2399    1.5492 O   0  0  0  0  0  0  0  0  0  0  0  0
    0.5635   -7.3349    4.2222 C   0  0  0  0  0  0  0  0  0  0  0  0
   -0.6370   -7.5276    5.1543 C   0  0  0  0  0  0  0  0  0  0  0  0
   -0.8812   -6.2576    5.9703 C   0  0  0  0  0  0  0  0  0  0  0  0
   -1.5834   -3.7452    6.9532 O   0  0  0  0  0  0  0  0  0  0  0  0
   -1.6924    0.9811    3.0810 C   0  0  0  0  0  0  0  0  0  0  0  0
   -2.4583    2.1138    2.7299 C   0  0  0  0  0  0  0  0  0  0  0  0
   -3.2376    2.1098    1.5768 C   0  0  0  0  0  0  0  0  0  0  0  0
   -3.2743    0.9633    0.8162 C   0  0  0  0  0  0  0  0  0  0  0  0
   -2.5481   -0.1908    1.1677 C   0  0  0  0  0  0  0  0  0  0  0  0
   -1.7375   -0.1669    2.2899 C   0  0  0  0  0  0  0  0  0  0  0  0
    3.2054    1.0121   -0.3638 F   0  0  0  0  0  0  0  0  0  0  0  0
    0.5773    6.1223    4.3083 H   0  0  0  0  0  0  0  0  0  0  0  0
    1.7513    5.3874    3.2144 H   0  0  0  0  0  0  0  0  0  0  0  0
    0.0961    4.7737    3.2618 H   0  0  0  0  0  0  0  0  0  0  0  0
    2.1620    4.6271    5.5222 H   0  0  0  0  0  0  0  0  0  0  0  0
    3.6551    2.9749    5.0154 H   0  0  0  0  0  0  0  0  0  0  0  0
    3.1607    1.7867    3.7831 H   0  0  0  0  0  0  0  0  0  0  0  0
    3.3271    3.5059    3.3479 H   0  0  0  0  0  0  0  0  0  0  0  0
   -0.2275    5.4290    8.9085 H   0  0  0  0  0  0  0  0  0  0  0  0
   -2.4785    4.3343    8.6970 H   0  0  0  0  0  0  0  0  0  0  0  0
   -2.9331    3.0082    6.6434 H   0  0  0  0  0  0  0  0  0  0  0  0
   -2.2792    5.0235    4.3507 H   0  0  0  0  0  0  0  0  0  0  0  0
   -2.7336    4.7867    2.6545 H   0  0  0  0  0  0  0  0  0  0  0  0
   -4.4267    4.0240    5.0977 H   0  0  0  0  0  0  0  0  0  0  0  0
   -4.7399    5.3488    3.9757 H   0  0  0  0  0  0  0  0  0  0  0  0
   -4.8688    3.6738    3.4268 H   0  0  0  0  0  0  0  0  0  0  0  0
    0.4425   -0.2526    4.1746 H   0  0  0  0  0  0  0  0  0  0  0  0
    0.8055    1.0036    5.3605 H   0  0  0  0  0  0  0  0  0  0  0  0
   -1.3541   -0.2969    8.0590 H   0  0  0  0  0  0  0  0  0  0  0  0
   -0.4099    1.0905    7.5095 H   0  0  0  0  0  0  0  0  0  0  0  0
   -2.0300    0.8156    6.8663 H   0  0  0  0  0  0  0  0  0  0  0  0
    0.2971   -2.0226    7.3964 H   0  0  0  0  0  0  0  0  0  0  0  0
    1.1110   -1.9242    5.8311 H   0  0  0  0  0  0  0  0  0  0  0  0
    1.3874   -0.6784    7.0507 H   0  0  0  0  0  0  0  0  0  0  0  0
   -2.3111   -1.7001    6.4071 H   0  0  0  0  0  0  0  0  0  0  0  0
   -2.2258   -0.9588    4.7842 H   0  0  0  0  0  0  0  0  0  0  0  0
   -1.8319   -5.1805    4.3496 H   0  0  0  0  0  0  0  0  0  0  0  0
    0.5015   -4.1491    3.8050 H   0  0  0  0  0  0  0  0  0  0  0  0
   -0.7787   -4.1391    2.3702 H   0  0  0  0  0  0  0  0  0  0  0  0
    0.2542   -4.6128   -0.3029 H   0  0  0  0  0  0  0  0  0  0  0  0
    1.8867   -3.2858   -0.9593 H   0  0  0  0  0  0  0  0  0  0  0  0
    4.1294   -3.9134    1.0150 H   0  0  0  0  0  0  0  0  0  0  0  0
    5.4797   -4.2404   -1.0236 H   0  0  0  0  0  0  0  0  0  0  0  0
    4.0803   -3.9076   -2.0445 H   0  0  0  0  0  0  0  0  0  0  0  0
    4.7916   -2.6169   -1.0839 H   0  0  0  0  0  0  0  0  0  0  0  0
    2.6307   -5.8512    0.7910 H   0  0  0  0  0  0  0  0  0  0  0  0
    2.6695   -5.7117   -0.9689 H   0  0  0  0  0  0  0  0  0  0  0  0
    4.1298   -6.1414   -0.0831 H   0  0  0  0  0  0  0  0  0  0  0  0
    1.6500    1.0240   -2.4242 H   0  0  0  0  0  0  0  0  0  0  0  0
    0.1292    0.8755   -1.5351 H   0  0  0  0  0  0  0  0  0  0  0  0
    2.1365    3.1764   -1.3475 H   0  0  0  0  0  0  0  0  0  0  0  0
    0.5205    3.2521   -2.0918 H   0  0  0  0  0  0  0  0  0  0  0  0
   -1.9086    7.0939   -1.8733 H   0  0  0  0  0  0  0  0  0  0  0  0
   -2.3125    7.3664   -3.5874 H   0  0  0  0  0  0  0  0  0  0  0  0
   -3.2639    8.1446   -2.3318 H   0  0  0  0  0  0  0  0  0  0  0  0
   -3.7934    5.8503   -0.4746 H   0  0  0  0  0  0  0  0  0  0  0  0
   -4.8248    7.1155   -1.1730 H   0  0  0  0  0  0  0  0  0  0  0  0
   -5.2526    5.4265   -1.4048 H   0  0  0  0  0  0  0  0  0  0  0  0
   -4.5227    3.4794   -2.0118 H   0  0  0  0  0  0  0  0  0  0  0  0
   -4.9900    4.1197   -3.5992 H   0  0  0  0  0  0  0  0  0  0  0  0
   -3.7580    2.8549   -3.4645 H   0  0  0  0  0  0  0  0  0  0  0  0
   -2.1182    3.9103   -4.6295 H   0  0  0  0  0  0  0  0  0  0  0  0
   -3.0430    5.3701   -5.0109 H   0  0  0  0  0  0  0  0  0  0  0  0
   -1.4521    5.4882   -4.2368 H   0  0  0  0  0  0  0  0  0  0  0  0
    2.2824    2.9190    1.1107 H   0  0  0  0  0  0  0  0  0  0  0  0
    0.7501    2.8659    2.0259 H   0  0  0  0  0  0  0  0  0  0  0  0
    0.2022    0.6767    1.0109 H   0  0  0  0  0  0  0  0  0  0  0  0
    1.7511    0.6089    1.8531 H   0  0  0  0  0  0  0  0  0  0  0  0
    3.2144   -1.7682    2.1688 H   0  0  0  0  0  0  0  0  0  0  0  0
    4.5488   -1.7336    0.9936 H   0  0  0  0  0  0  0  0  0  0  0  0
    3.6248   -0.2753    1.2994 H   0  0  0  0  0  0  0  0  0  0  0  0
   -1.8437   -5.8341    0.0690 H   0  0  0  0  0  0  0  0  0  0  0  0
   -2.6988   -5.4821    1.5727 H   0  0  0  0  0  0  0  0  0  0  0  0
   -3.6458   -3.8822    0.1865 H   0  0  0  0  0  0  0  0  0  0  0  0
   -2.5654   -2.6333    2.0258 H   0  0  0  0  0  0  0  0  0  0  0  0
   -1.0733   -2.4761    1.0343 H   0  0  0  0  0  0  0  0  0  0  0  0
   -2.7522   -0.4303   -1.4784 H   0  0  0  0  0  0  0  0  0  0  0  0
   -1.1804   -1.1574   -1.0387 H   0  0  0  0  0  0  0  0  0  0  0  0
   -3.7267   -2.6795   -1.7714 H   0  0  0  0  0  0  0  0  0  0  0  0
   -2.2260   -2.5442   -2.7411 H   0  0  0  0  0  0  0  0  0  0  0  0
    0.6698   -8.1717    3.5322 H   0  0  0  0  0  0  0  0  0  0  0  0
    1.4801   -7.2021    4.8000 H   0  0  0  0  0  0  0  0  0  0  0  0
   -1.5186   -7.7512    4.5487 H   0  0  0  0  0  0  0  0  0  0  0  0
   -0.4566   -8.3728    5.8181 H   0  0  0  0  0  0  0  0  0  0  0  0
   -0.0518   -6.0908    6.6583 H   0  0  0  0  0  0  0  0  0  0  0  0
   -1.7977   -6.3402    6.5538 H   0  0  0  0  0  0  0  0  0  0  0  0
   -3.7997    2.9809    1.2763 H   0  0  0  0  0  0  0  0  0  0  0  0
   -3.8936    0.9332   -0.0677 H   0  0  0  0  0  0  0  0  0  0  0  0
   -1.1333   -1.0105    2.5801 H   0  0  0  0  0  0  0  0  0  0  0  0
  1  2  1  0  0  0  0
  2  3  1  0  0  0  0
  3  4  1  0  0  0  0
  2  5  1  0  0  0  0
  5  6  4  0  0  0  0
  6  7  4  0  0  0  0
  7  8  4  0  0  0  0
  8  9  4  0  0  0  0
  5 10  4  0  0  0  0
  9 10  4  0  0  0  0
 10 11  1  0  0  0  0
 11 12  1  0  0  0  0
 12 13  1  0  0  0  0
 13 14  1  0  0  0  0
 11 15  2  0  0  0  0
 15 16  1  0  0  0  0
 16 17  1  0  0  0  0
 17 18  1  0  0  0  0
 17 19  1  0  0  0  0
 17 20  1  0  0  0  0
 20 21  1  0  0  0  0
 21 22  1  0  0  0  0
 22 23  1  0  0  0  0
 23 24  1  0  0  0  0
 24 25  1  0  0  0  0
 25 26  4  0  0  0  0
 26 27  1  0  0  0  0
 27 28  1  0  0  0  0
 28 29  4  0  0  0  0
 29 30  1  0  0  0  0
 30 31  1  0  0  0  0
 31 32  1  0  0  0  0
 31 33  1  0  0  0  0
 30 34  1  0  0  0  0
 34 35  4  0  0  0  0
 35 36  1  0  0  0  0
 36 37  1  0  0  0  0
 37 38  1  0  0  0  0
 38 39  1  0  0  0  0
 39 40  4  0  0  0  0
 40 41  1  0  0  0  0
 41 42  3  0  0  0  0
 42 43  1  0  0  0  0
 43 44  1  0  0  0  0
 44 45  1  0  0  0  0
 44 46  1  0  0  0  0
 43 47  1  0  0  0  0
 43 48  1  0  0  0  0
 40 49  2  0  0  0  0
 39 50  1  0  0  0  0
 36 51  1  0  0  0  0
 50 51  1  0  0  0  0
 35 52  2  0  0  0  0
 34 53  1  0  0  0  0
 29 54  2  0  0  0  0
 27 55  1  0  0  0  0
 55 56  1  0  0  0  0
 56 57  1  0  0  0  0
 57 58  1  0  0  0  0
 58 59  1  0  0  0  0
 59 60  1  0  0  0  0
 56 61  1  0  0  0  0
 60 61  1  0  0  0  0
 26 62  2  0  0  0  0
 25 63  1  0  0  0  0
 63 64  1  0  0  0  0
 23 65  1  0  0  0  0
 64 65  1  0  0  0  0
 22 66  2  0  0  0  0
 15 67  4  0  0  0  0
 12 68  1  0  0  0  0
 67 68  4  0  0  0  0
 68 69  4  0  0  0  0
 69 70  2  0  0  0  0
 58 71  1  0  0  0  0
 70 71  4  0  0  0  0
 67 72  4  0  0  0  0
 71 72  4  0  0  0  0
 36 73  1  0  0  0  0
  1 74  1  0  0  0  0
  1 75  1  0  0  0  0
  1 76  1  0  0  0  0
  2 77  1  0  0  0  0
  4 78  1  0  0  0  0
  4 79  1  0  0  0  0
  4 80  1  0  0  0  0
  7 81  1  0  0  0  0
  8 82  1  0  0  0  0
  9 83  1  0  0  0  0
 13 84  1  0  0  0  0
 13 85  1  0  0  0  0
 14 86  1  0  0  0  0
 14 87  1  0  0  0  0
 14 88  1  0  0  0  0
 16 89  1  0  0  0  0
 16 90  1  0  0  0  0
 18 91  1  0  0  0  0
 18 92  1  0  0  0  0
 18 93  1  0  0  0  0
 19 94  1  0  0  0  0
 19 95  1  0  0  0  0
 19 96  1  0  0  0  0
 20 97  1  0  0  0  0
 20 98  1  0  0  0  0
 23 99  1  0  0  0  0
 24100  1  0  0  0  0
 27101  1  0  0  0  0
 28102  1  0  0  0  0
 30103  1  0  0  0  0
 31104  1  0  0  0  0
 32105  1  0  0  0  0
 32106  1  0  0  0  0
 32107  1  0  0  0  0
 33108  1  0  0  0  0
 33109  1  0  0  0  0
 33110  1  0  0  0  0
 37111  1  0  0  0  0
 37112  1  0  0  0  0
 38113  1  0  0  0  0
 38114  1  0  0  0  0
 45115  1  0  0  0  0
 45116  1  0  0  0  0
 45117  1  0  0  0  0
 46118  1  0  0  0  0
 46119  1  0  0  0  0
 46120  1  0  0  0  0
 47121  1  0  0  0  0
 47122  1  0  0  0  0
 47123  1  0  0  0  0
 48124  1  0  0  0  0
 48125  1  0  0  0  0
 48126  1  0  0  0  0
 50127  1  0  0  0  0
 50128  1  0  0  0  0
 51129  1  0  0  0  0
 51130  1  0  0  0  0
 53131  1  0  0  0  0
 53132  1  0  0  0  0
 53133  1  0  0  0  0
 55134  1  0  0  0  0
 55135  1  0  0  0  0
 56136  1  0  0  0  0
 57137  1  0  0  0  0
 57138  1  0  0  0  0
 59139  1  0  0  0  0
 59140  1  0  0  0  0
 60141  1  0  0  0  0
 60142  1  0  0  0  0
 63143  1  0  0  0  0
 63144  1  0  0  0  0
 64145  1  0  0  0  0
 64146  1  0  0  0  0
 65147  1  0  0  0  0
 65148  1  0  0  0  0
 69149  1  0  0  0  0
 70150  1  0  0  0  0
 72151  1  0  0  0  0
M  END
$$$$
