 xtb: 6.7.1 (edcfbbe)
          08232518203D

151157  0     0  0            999 V2000
    3.6826    0.4406   -7.4091 C   0  0  0  0  0  0  0  0  0  0  0  0
    3.0313    1.8095   -7.6528 C   0  0  0  0  0  0  0  0  0  0  0  0
    2.7000    2.4874   -6.4579 O   0  0  0  0  0  0  0  0  0  0  0  0
    3.8009    2.8930   -5.6878 C   0  0  0  0  0  0  0  0  0  0  0  0
    1.7720    1.6655   -8.4806 C   0  0  0  0  0  0  0  0  0  0  0  0
    1.8687    2.1686   -9.7024 N   0  0  0  0  0  0  0  0  0  0  0  0
    0.8485    2.0711  -10.5344 C   0  0  0  0  0  0  0  0  0  0  0  0
   -0.3427    1.4521  -10.1942 C   0  0  0  0  0  0  0  0  0  0  0  0
   -0.4523    0.9229   -8.9209 C   0  0  0  0  0  0  0  0  0  0  0  0
    0.6108    1.0252   -8.0259 C   0  0  0  0  0  0  0  0  0  0  0  0
    0.4910    0.4389   -6.6830 C   0  0  0  0  0  0  0  0  0  0  0  0
    0.6426   -0.9244   -6.5106 N   0  0  0  0  0  0  0  0  0  0  0  0
    0.8684   -1.8989   -7.5440 C   0  0  0  0  0  0  0  0  0  0  0  0
   -0.4104   -2.6517   -7.9118 C   0  0  0  0  0  0  0  0  0  0  0  0
    0.2423    1.0446   -5.4762 C   0  0  0  0  0  0  0  0  0  0  0  0
   -0.0324    2.4842   -5.1872 C   0  0  0  0  0  0  0  0  0  0  0  0
   -1.5308    2.8599   -5.1250 C   0  0  0  0  0  0  0  0  0  0  0  0
   -1.6531    4.3656   -4.8799 C   0  0  0  0  0  0  0  0  0  0  0  0
   -2.2141    2.5015   -6.4457 C   0  0  0  0  0  0  0  0  0  0  0  0
   -2.2737    2.0935   -4.0141 C   0  0  0  0  0  0  0  0  0  0  0  0
   -2.0605    2.6380   -2.7014 O   0  0  0  0  0  0  0  0  0  0  0  0
   -3.0998    3.2403   -2.1376 C   0  0  0  0  0  0  0  0  0  0  0  0
   -2.8143    3.8081   -0.7509 C   0  0  0  0  0  0  0  0  0  0  0  0
   -1.3956    3.9767   -0.4621 N   0  0  0  0  0  0  0  0  0  0  0  0
   -1.2209    4.4096    0.8661 N   0  0  0  0  0  0  0  0  0  0  0  0
   -0.7735    3.7063    1.9247 C   0  0  0  0  0  0  0  0  0  0  0  0
   -0.1471    2.3212    1.6467 C   0  0  0  0  0  0  0  0  0  0  0  0
    0.8656    2.1041    2.6550 N   0  0  0  0  0  0  0  0  0  0  0  0
    1.8874    2.9730    2.7484 C   0  0  0  0  0  0  0  0  0  0  0  0
    2.8053    2.7377    3.9521 C   0  0  0  0  0  0  0  0  0  0  0  0
    3.3287    4.0579    4.5278 C   0  0  0  0  0  0  0  0  0  0  0  0
    4.3497    3.8001    5.6321 C   0  0  0  0  0  0  0  0  0  0  0  0
    2.1385    4.8447    5.0754 C   0  0  0  0  0  0  0  0  0  0  0  0
    3.8475    1.8201    3.4910 N   0  0  0  0  0  0  0  0  0  0  0  0
    3.7532    0.5486    3.9107 C   0  0  0  0  0  0  0  0  0  0  0  0
    4.6651   -0.5294    3.2962 C   0  0  0  0  0  0  0  0  0  0  0  0
    4.8195   -1.6947    4.2772 C   0  0  0  0  0  0  0  0  0  0  0  0
    5.4437   -2.9132    3.5938 C   0  0  0  0  0  0  0  0  0  0  0  0
    4.6745   -3.2746    2.4298 N   0  0  0  0  0  0  0  0  0  0  0  0
    3.7496   -4.2675    2.3994 C   0  0  0  0  0  0  0  0  0  0  0  0
    3.8043   -5.1792    3.5148 C   0  0  0  0  0  0  0  0  0  0  0  0
    3.7234   -6.0126    4.3795 C   0  0  0  0  0  0  0  0  0  0  0  0
    3.7584   -6.9710    5.4803 C   0  0  0  0  0  0  0  0  0  0  0  0
    2.5597   -7.8100    5.4083 N   0  0  0  0  0  0  0  0  0  0  0  0
    2.3257   -8.4116    4.1123 C   0  0  0  0  0  0  0  0  0  0  0  0
    2.4316   -8.7968    6.4571 C   0  0  0  0  0  0  0  0  0  0  0  0
    3.7438   -6.1470    6.7803 C   0  0  0  0  0  0  0  0  0  0  0  0
    5.0910   -7.7449    5.3703 C   0  0  0  0  0  0  0  0  0  0  0  0
    2.9571   -4.4123    1.4834 O   0  0  0  0  0  0  0  0  0  0  0  0
    4.6376   -2.2380    1.4275 C   0  0  0  0  0  0  0  0  0  0  0  0
    3.9800   -0.9815    1.9992 C   0  0  0  0  0  0  0  0  0  0  0  0
    2.8955    0.1820    4.7017 O   0  0  0  0  0  0  0  0  0  0  0  0
    4.7845    2.3457    2.5220 C   0  0  0  0  0  0  0  0  0  0  0  0
    2.1145    3.8124    1.8961 O   0  0  0  0  0  0  0  0  0  0  0  0
   -1.2093    1.2227    1.6801 C   0  0  0  0  0  0  0  0  0  0  0  0
   -0.8107   -0.1110    1.0344 C   0  0  0  0  0  0  0  0  0  0  0  0
   -0.3456    0.0745   -0.4127 C   0  0  0  0  0  0  0  0  0  0  0  0
   -0.0174   -1.2013   -1.0148 N   0  0  0  0  0  0  0  0  0  0  0  0
    0.9680   -1.8983   -0.2021 C   0  0  0  0  0  0  0  0  0  0  0  0
    0.4443   -2.0288    1.2261 C   0  0  0  0  0  0  0  0  0  0  0  0
    0.1816   -0.7632    1.7972 O   0  0  0  0  0  0  0  0  0  0  0  0
   -0.7886    4.1635    3.0527 O   0  0  0  0  0  0  0  0  0  0  0  0
   -1.7487    5.7485    1.0491 C   0  0  0  0  0  0  0  0  0  0  0  0
   -3.2494    5.7491    0.7657 C   0  0  0  0  0  0  0  0  0  0  0  0
   -3.4869    5.1832   -0.6302 C   0  0  0  0  0  0  0  0  0  0  0  0
   -4.1983    3.3157   -2.6259 O   0  0  0  0  0  0  0  0  0  0  0  0
    0.2779    0.0060   -4.4998 C   0  0  0  0  0  0  0  0  0  0  0  0
    0.5115   -1.2083   -5.1771 C   0  0  0  0  0  0  0  0  0  0  0  0
    0.5790   -2.4048   -4.4711 C   0  0  0  0  0  0  0  0  0  0  0  0
    0.4088   -2.3694   -3.1052 C   0  0  0  0  0  0  0  0  0  0  0  0
    0.2071   -1.1634   -2.4052 C   0  0  0  0  0  0  0  0  0  0  0  0
    0.1621    0.0259   -3.1123 C   0  0  0  0  0  0  0  0  0  0  0  0
    5.9419   -0.0524    3.0101 F   0  0  0  0  0  0  0  0  0  0  0  0
    3.1140   -0.1146   -6.6685 H   0  0  0  0  0  0  0  0  0  0  0  0
    3.7115   -0.1188   -8.3405 H   0  0  0  0  0  0  0  0  0  0  0  0
    4.7018    0.5621   -7.0510 H   0  0  0  0  0  0  0  0  0  0  0  0
    3.7249    2.4295   -8.2461 H   0  0  0  0  0  0  0  0  0  0  0  0
    3.4030    3.5451   -4.9122 H   0  0  0  0  0  0  0  0  0  0  0  0
    4.3063    2.0441   -5.2150 H   0  0  0  0  0  0  0  0  0  0  0  0
    4.5269    3.4492   -6.2937 H   0  0  0  0  0  0  0  0  0  0  0  0
    1.0028    2.5056  -11.5133 H   0  0  0  0  0  0  0  0  0  0  0  0
   -1.1563    1.3842  -10.8994 H   0  0  0  0  0  0  0  0  0  0  0  0
   -1.3636    0.4311   -8.6118 H   0  0  0  0  0  0  0  0  0  0  0  0
    1.2647   -1.3868   -8.4250 H   0  0  0  0  0  0  0  0  0  0  0  0
    1.6221   -2.6112   -7.1911 H   0  0  0  0  0  0  0  0  0  0  0  0
   -0.8338   -3.1278   -7.0310 H   0  0  0  0  0  0  0  0  0  0  0  0
   -1.1498   -1.9699   -8.3238 H   0  0  0  0  0  0  0  0  0  0  0  0
   -0.1918   -3.4154   -8.6534 H   0  0  0  0  0  0  0  0  0  0  0  0
    0.4250    2.7380   -4.2292 H   0  0  0  0  0  0  0  0  0  0  0  0
    0.4420    3.0935   -5.9567 H   0  0  0  0  0  0  0  0  0  0  0  0
   -1.1153    4.6537   -3.9791 H   0  0  0  0  0  0  0  0  0  0  0  0
   -1.2364    4.9151   -5.7202 H   0  0  0  0  0  0  0  0  0  0  0  0
   -2.6979    4.6487   -4.7647 H   0  0  0  0  0  0  0  0  0  0  0  0
   -3.2319    2.8849   -6.4666 H   0  0  0  0  0  0  0  0  0  0  0  0
   -1.6649    2.9303   -7.2800 H   0  0  0  0  0  0  0  0  0  0  0  0
   -2.2489    1.4220   -6.5692 H   0  0  0  0  0  0  0  0  0  0  0  0
   -3.3499    2.1260   -4.2103 H   0  0  0  0  0  0  0  0  0  0  0  0
   -1.9430    1.0543   -3.9799 H   0  0  0  0  0  0  0  0  0  0  0  0
   -3.3048    3.1171   -0.0367 H   0  0  0  0  0  0  0  0  0  0  0  0
   -0.8653    3.1356   -0.6571 H   0  0  0  0  0  0  0  0  0  0  0  0
    0.3684    2.3749    0.6817 H   0  0  0  0  0  0  0  0  0  0  0  0
    0.6923    1.4217    3.3758 H   0  0  0  0  0  0  0  0  0  0  0  0
    2.2578    2.2056    4.7351 H   0  0  0  0  0  0  0  0  0  0  0  0
    3.7898    4.6411    3.7258 H   0  0  0  0  0  0  0  0  0  0  0  0
    3.9043    3.1968    6.4205 H   0  0  0  0  0  0  0  0  0  0  0  0
    5.2227    3.2743    5.2543 H   0  0  0  0  0  0  0  0  0  0  0  0
    4.6782    4.7426    6.0635 H   0  0  0  0  0  0  0  0  0  0  0  0
    1.6959    4.3222    5.9209 H   0  0  0  0  0  0  0  0  0  0  0  0
    2.4593    5.8288    5.4078 H   0  0  0  0  0  0  0  0  0  0  0  0
    1.3726    4.9687    4.3139 H   0  0  0  0  0  0  0  0  0  0  0  0
    5.4464   -1.3705    5.1092 H   0  0  0  0  0  0  0  0  0  0  0  0
    3.8308   -1.9406    4.6650 H   0  0  0  0  0  0  0  0  0  0  0  0
    6.4638   -2.6730    3.2729 H   0  0  0  0  0  0  0  0  0  0  0  0
    5.4776   -3.7570    4.2845 H   0  0  0  0  0  0  0  0  0  0  0  0
    3.0119   -9.2434    3.8885 H   0  0  0  0  0  0  0  0  0  0  0  0
    1.3075   -8.8008    4.0965 H   0  0  0  0  0  0  0  0  0  0  0  0
    2.4188   -7.6577    3.3338 H   0  0  0  0  0  0  0  0  0  0  0  0
    2.5489   -8.3340    7.4330 H   0  0  0  0  0  0  0  0  0  0  0  0
    1.4262   -9.2149    6.4020 H   0  0  0  0  0  0  0  0  0  0  0  0
    3.1479   -9.6285    6.3657 H   0  0  0  0  0  0  0  0  0  0  0  0
    4.0271   -6.7567    7.6339 H   0  0  0  0  0  0  0  0  0  0  0  0
    4.4504   -5.3236    6.7024 H   0  0  0  0  0  0  0  0  0  0  0  0
    2.7494   -5.7400    6.9421 H   0  0  0  0  0  0  0  0  0  0  0  0
    5.1865   -8.4461    6.1958 H   0  0  0  0  0  0  0  0  0  0  0  0
    5.1398   -8.2903    4.4308 H   0  0  0  0  0  0  0  0  0  0  0  0
    5.9255   -7.0489    5.4071 H   0  0  0  0  0  0  0  0  0  0  0  0
    5.6633   -2.0153    1.1144 H   0  0  0  0  0  0  0  0  0  0  0  0
    4.0675   -2.6108    0.5741 H   0  0  0  0  0  0  0  0  0  0  0  0
    2.9354   -1.1837    2.2400 H   0  0  0  0  0  0  0  0  0  0  0  0
    4.0120   -0.1810    1.2589 H   0  0  0  0  0  0  0  0  0  0  0  0
    5.7210    2.6389    3.0010 H   0  0  0  0  0  0  0  0  0  0  0  0
    5.0123    1.6225    1.7439 H   0  0  0  0  0  0  0  0  0  0  0  0
    4.3344    3.2173    2.0503 H   0  0  0  0  0  0  0  0  0  0  0  0
   -1.4754    1.0375    2.7225 H   0  0  0  0  0  0  0  0  0  0  0  0
   -2.1068    1.5743    1.1664 H   0  0  0  0  0  0  0  0  0  0  0  0
   -1.7104   -0.7534    1.0166 H   0  0  0  0  0  0  0  0  0  0  0  0
   -1.1604    0.5324   -0.9782 H   0  0  0  0  0  0  0  0  0  0  0  0
    0.5356    0.7377   -0.4232 H   0  0  0  0  0  0  0  0  0  0  0  0
    1.1577   -2.8930   -0.5996 H   0  0  0  0  0  0  0  0  0  0  0  0
    1.9180   -1.3377   -0.1850 H   0  0  0  0  0  0  0  0  0  0  0  0
   -0.4781   -2.6274    1.2190 H   0  0  0  0  0  0  0  0  0  0  0  0
    1.1799   -2.5259    1.8579 H   0  0  0  0  0  0  0  0  0  0  0  0
   -1.5310    6.0490    2.0736 H   0  0  0  0  0  0  0  0  0  0  0  0
   -1.2313    6.4092    0.3486 H   0  0  0  0  0  0  0  0  0  0  0  0
   -3.7579    5.1336    1.5107 H   0  0  0  0  0  0  0  0  0  0  0  0
   -3.6394    6.7639    0.8352 H   0  0  0  0  0  0  0  0  0  0  0  0
   -3.0440    5.8460   -1.3754 H   0  0  0  0  0  0  0  0  0  0  0  0
   -4.5500    5.0814   -0.8453 H   0  0  0  0  0  0  0  0  0  0  0  0
    0.7521   -3.3466   -4.9705 H   0  0  0  0  0  0  0  0  0  0  0  0
    0.4256   -3.2968   -2.5547 H   0  0  0  0  0  0  0  0  0  0  0  0
    0.0484    0.9813   -2.6302 H   0  0  0  0  0  0  0  0  0  0  0  0
  1  2  1  0  0  0  0
  2  3  1  0  0  0  0
  3  4  1  0  0  0  0
  2  5  1  0  0  0  0
  5  6  4  0  0  0  0
  6  7  4  0  0  0  0
  7  8  4  0  0  0  0
  8  9  4  0  0  0  0
  5 10  4  0  0  0  0
  9 10  4  0  0  0  0
 10 11  1  0  0  0  0
 11 12  1  0  0  0  0
 12 13  1  0  0  0  0
 13 14  1  0  0  0  0
 11 15  2  0  0  0  0
 15 16  1  0  0  0  0
 16 17  1  0  0  0  0
 17 18  1  0  0  0  0
 17 19  1  0  0  0  0
 17 20  1  0  0  0  0
 20 21  1  0  0  0  0
 21 22  1  0  0  0  0
 22 23  1  0  0  0  0
 23 24  1  0  0  0  0
 24 25  1  0  0  0  0
 25 26  4  0  0  0  0
 26 27  1  0  0  0  0
 27 28  1  0  0  0  0
 28 29  4  0  0  0  0
 29 30  1  0  0  0  0
 30 31  1  0  0  0  0
 31 32  1  0  0  0  0
 31 33  1  0  0  0  0
 30 34  1  0  0  0  0
 34 35  4  0  0  0  0
 35 36  1  0  0  0  0
 36 37  1  0  0  0  0
 37 38  1  0  0  0  0
 38 39  1  0  0  0  0
 39 40  4  0  0  0  0
 40 41  1  0  0  0  0
 41 42  3  0  0  0  0
 42 43  1  0  0  0  0
 43 44  1  0  0  0  0
 44 45  1  0  0  0  0
 44 46  1  0  0  0  0
 43 47  1  0  0  0  0
 43 48  1  0  0  0  0
 40 49  2  0  0  0  0
 39 50  1  0  0  0  0
 36 51  1  0  0  0  0
 50 51  1  0  0  0  0
 35 52  2  0  0  0  0
 34 53  1  0  0  0  0
 29 54  2  0  0  0  0
 27 55  1  0  0  0  0
 55 56  1  0  0  0  0
 56 57  1  0  0  0  0
 57 58  1  0  0  0  0
 58 59  1  0  0  0  0
 59 60  1  0  0  0  0
 56 61  1  0  0  0  0
 60 61  1  0  0  0  0
 26 62  2  0  0  0  0
 25 63  1  0  0  0  0
 63 64  1  0  0  0  0
 23 65  1  0  0  0  0
 64 65  1  0  0  0  0
 22 66  2  0  0  0  0
 15 67  4  0  0  0  0
 12 68  1  0  0  0  0
 67 68  4  0  0  0  0
 68 69  4  0  0  0  0
 69 70  2  0  0  0  0
 58 71  1  0  0  0  0
 70 71  4  0  0  0  0
 67 72  4  0  0  0  0
 71 72  4  0  0  0  0
 36 73  1  0  0  0  0
  1 74  1  0  0  0  0
  1 75  1  0  0  0  0
  1 76  1  0  0  0  0
  2 77  1  0  0  0  0
  4 78  1  0  0  0  0
  4 79  1  0  0  0  0
  4 80  1  0  0  0  0
  7 81  1  0  0  0  0
  8 82  1  0  0  0  0
  9 83  1  0  0  0  0
 13 84  1  0  0  0  0
 13 85  1  0  0  0  0
 14 86  1  0  0  0  0
 14 87  1  0  0  0  0
 14 88  1  0  0  0  0
 16 89  1  0  0  0  0
 16 90  1  0  0  0  0
 18 91  1  0  0  0  0
 18 92  1  0  0  0  0
 18 93  1  0  0  0  0
 19 94  1  0  0  0  0
 19 95  1  0  0  0  0
 19 96  1  0  0  0  0
 20 97  1  0  0  0  0
 20 98  1  0  0  0  0
 23 99  1  0  0  0  0
 24100  1  0  0  0  0
 27101  1  0  0  0  0
 28102  1  0  0  0  0
 30103  1  0  0  0  0
 31104  1  0  0  0  0
 32105  1  0  0  0  0
 32106  1  0  0  0  0
 32107  1  0  0  0  0
 33108  1  0  0  0  0
 33109  1  0  0  0  0
 33110  1  0  0  0  0
 37111  1  0  0  0  0
 37112  1  0  0  0  0
 38113  1  0  0  0  0
 38114  1  0  0  0  0
 45115  1  0  0  0  0
 45116  1  0  0  0  0
 45117  1  0  0  0  0
 46118  1  0  0  0  0
 46119  1  0  0  0  0
 46120  1  0  0  0  0
 47121  1  0  0  0  0
 47122  1  0  0  0  0
 47123  1  0  0  0  0
 48124  1  0  0  0  0
 48125  1  0  0  0  0
 48126  1  0  0  0  0
 50127  1  0  0  0  0
 50128  1  0  0  0  0
 51129  1  0  0  0  0
 51130  1  0  0  0  0
 53131  1  0  0  0  0
 53132  1  0  0  0  0
 53133  1  0  0  0  0
 55134  1  0  0  0  0
 55135  1  0  0  0  0
 56136  1  0  0  0  0
 57137  1  0  0  0  0
 57138  1  0  0  0  0
 59139  1  0  0  0  0
 59140  1  0  0  0  0
 60141  1  0  0  0  0
 60142  1  0  0  0  0
 63143  1  0  0  0  0
 63144  1  0  0  0  0
 64145  1  0  0  0  0
 64146  1  0  0  0  0
 65147  1  0  0  0  0
 65148  1  0  0  0  0
 69149  1  0  0  0  0
 70150  1  0  0  0  0
 72151  1  0  0  0  0
M  END
$$$$
