mol_bioactive_16
     RDKit          3D

151157  0  0  0  0  0  0  0  0999 V2000
   -0.2936    6.5430    5.1024 C   0  0  0  0  0  0  0  0  0  0  0  0
   -0.6008    5.0802    4.7565 C   0  0  2  0  0  0  0  0  0  0  0  0
   -1.7853    4.9777    3.9472 O   0  0  0  0  0  0  0  0  0  0  0  0
   -1.5889    5.4076    2.6071 C   0  0  0  0  0  0  0  0  0  0  0  0
   -0.7935    4.2295    6.0120 C   0  0  0  0  0  0  0  0  0  0  0  0
   -1.3361    4.8496    7.1041 N   0  0  0  0  0  0  0  0  0  0  0  0
   -1.5270    4.1219    8.2241 C   0  0  0  0  0  0  0  0  0  0  0  0
   -1.1987    2.7872    8.3320 C   0  0  0  0  0  0  0  0  0  0  0  0
   -0.6400    2.1580    7.2270 C   0  0  0  0  0  0  0  0  0  0  0  0
   -0.4358    2.8711    6.0389 C   0  0  0  0  0  0  0  0  0  0  0  0
    0.1918    2.1923    4.8983 C   0  0  0  0  0  0  0  0  0  0  0  0
    1.5665    2.0870    4.7450 N   0  0  0  0  0  0  0  0  0  0  0  0
    2.5745    2.4904    5.7196 C   0  0  0  0  0  0  0  0  0  0  0  0
    3.0925    3.9005    5.4891 C   0  0  0  0  0  0  0  0  0  0  0  0
   -0.3992    1.6354    3.7660 C   0  0  0  0  0  0  0  0  0  0  0  0
   -1.8686    1.5322    3.4256 C   0  0  0  0  0  0  0  0  0  0  0  0
   -2.5984    0.1921    3.7517 C   0  0  0  0  0  0  0  0  0  0  0  0
   -1.8141   -1.0502    3.2892 C   0  0  0  0  0  0  0  0  0  0  0  0
   -2.8375    0.0741    5.2708 C   0  0  0  0  0  0  0  0  0  0  0  0
   -3.9872    0.2120    3.0485 C   0  0  0  0  0  0  0  0  0  0  0  0
   -3.8499   -0.0477    1.6384 O   0  0  0  0  0  0  0  0  0  0  0  0
   -5.0347   -0.0577    0.9499 C   0  0  0  0  0  0  0  0  0  0  0  0
   -4.8084   -0.5390   -0.4927 C   0  0  1  0  0  0  0  0  0  0  0  0
   -4.1483   -1.8618   -0.4761 N   0  0  0  0  0  0  0  0  0  0  0  0
   -3.8889   -2.3311   -1.8104 N   0  0  0  0  0  0  0  0  0  0  0  0
   -2.8043   -3.2032   -2.0443 C   0  0  0  0  0  0  0  0  0  0  0  0
   -1.4387   -2.7317   -1.4974 C   0  0  1  0  0  0  0  0  0  0  0  0
   -0.6734   -3.8682   -1.0132 N   0  0  0  0  0  0  0  0  0  0  0  0
   -0.7814   -4.2863    0.2967 C   0  0  0  0  0  0  0  0  0  0  0  0
    0.0427   -5.5512    0.6481 C   0  0  2  0  0  0  0  0  0  0  0  0
   -0.8833   -6.7876    0.8087 C   0  0  0  0  0  0  0  0  0  0  0  0
   -0.0700   -8.0450    1.1361 C   0  0  0  0  0  0  0  0  0  0  0  0
   -1.7036   -7.0521   -0.4638 C   0  0  0  0  0  0  0  0  0  0  0  0
    0.8993   -5.2401    1.8277 N   0  0  0  0  0  0  0  0  0  0  0  0
    2.1368   -4.6421    1.5553 C   0  0  0  0  0  0  0  0  0  0  0  0
    3.0271   -4.1110    2.7106 C   0  0  0  0  0  0  0  0  0  0  0  0
    2.4548   -2.8230    3.3135 C   0  0  0  0  0  0  0  0  0  0  0  0
    3.3973   -2.2388    4.3606 C   0  0  0  0  0  0  0  0  0  0  0  0
    4.7246   -2.0411    3.8052 N   0  0  0  0  0  0  0  0  0  0  0  0
    5.4484   -0.9149    4.1807 C   0  0  0  0  0  0  0  0  0  0  0  0
    6.6484   -0.6025    3.4356 C   0  0  0  0  0  0  0  0  0  0  0  0
    7.5868   -0.2799    2.7568 C   0  0  0  0  0  0  0  0  0  0  0  0
    8.6966    0.1707    1.8744 C   0  0  0  0  0  0  0  0  0  0  0  0
    8.3466   -0.1889    0.4742 N   0  0  0  0  0  0  0  0  0  0  0  0
    8.3845   -1.6270    0.1976 C   0  0  0  0  0  0  0  0  0  0  0  0
    9.1136    0.5199   -0.5528 C   0  0  0  0  0  0  0  0  0  0  0  0
    8.8059    1.7027    2.0636 C   0  0  0  0  0  0  0  0  0  0  0  0
   10.0121   -0.4644    2.3711 C   0  0  0  0  0  0  0  0  0  0  0  0
    5.0977   -0.1320    5.0572 O   0  0  0  0  0  0  0  0  0  0  0  0
    5.3461   -3.2225    3.2222 C   0  0  0  0  0  0  0  0  0  0  0  0
    4.4484   -3.8553    2.1748 C   0  0  0  0  0  0  0  0  0  0  0  0
    2.5188   -4.5169    0.3836 O   0  0  0  0  0  0  0  0  0  0  0  0
    0.2743   -5.2225    3.1502 C   0  0  0  0  0  0  0  0  0  0  0  0
   -1.4757   -3.6813    1.1138 O   0  0  0  0  0  0  0  0  0  0  0  0
   -0.7030   -1.9658   -2.6157 C   0  0  0  0  0  0  0  0  0  0  0  0
    0.6367   -1.3213   -2.2166 C   0  0  1  0  0  0  0  0  0  0  0  0
    0.6079   -0.7128   -0.8062 C   0  0  0  0  0  0  0  0  0  0  0  0
    1.9036   -0.1108   -0.4114 N   0  0  0  0  0  0  0  0  0  0  0  0
    3.0436   -1.0313   -0.6884 C   0  0  0  0  0  0  0  0  0  0  0  0
    2.9539   -1.6473   -2.0939 C   0  0  0  0  0  0  0  0  0  0  0  0
    1.6889   -2.2926   -2.3334 O   0  0  0  0  0  0  0  0  0  0  0  0
   -2.8890   -4.2076   -2.7623 O   0  0  0  0  0  0  0  0  0  0  0  0
   -5.1177   -2.5557   -2.5780 C   0  0  0  0  0  0  0  0  0  0  0  0
   -5.9392   -1.2698   -2.6436 C   0  0  0  0  0  0  0  0  0  0  0  0
   -6.1419   -0.6728   -1.2466 C   0  0  0  0  0  0  0  0  0  0  0  0
   -6.1128    0.2876    1.4206 O   0  0  0  0  0  0  0  0  0  0  0  0
    0.6689    1.2823    2.8781 C   0  0  0  0  0  0  0  0  0  0  0  0
    1.8736    1.5810    3.4962 C   0  0  0  0  0  0  0  0  0  0  0  0
    3.0968    1.3817    2.8424 C   0  0  0  0  0  0  0  0  0  0  0  0
    3.0827    0.8326    1.5466 C   0  0  0  0  0  0  0  0  0  0  0  0
    1.9023    0.4681    0.8868 C   0  0  0  0  0  0  0  0  0  0  0  0
    0.7049    0.7565    1.5678 C   0  0  0  0  0  0  0  0  0  0  0  0
    3.1503   -5.0406    3.7126 F   0  0  0  0  0  0  0  0  0  0  0  0
   -1.1770    7.0531    5.5051 H   0  0  0  0  0  0  0  0  0  0  0  0
    0.5276    6.6167    5.8247 H   0  0  0  0  0  0  0  0  0  0  0  0
    0.0050    7.0927    4.2066 H   0  0  0  0  0  0  0  0  0  0  0  0
    0.2565    4.6930    4.1930 H   0  0  0  0  0  0  0  0  0  0  0  0
   -2.4804    5.1470    2.0287 H   0  0  0  0  0  0  0  0  0  0  0  0
   -1.4617    6.4936    2.5658 H   0  0  0  0  0  0  0  0  0  0  0  0
   -0.7241    4.9074    2.1564 H   0  0  0  0  0  0  0  0  0  0  0  0
   -1.9619    4.6637    9.0604 H   0  0  0  0  0  0  0  0  0  0  0  0
   -1.3659    2.2474    9.2565 H   0  0  0  0  0  0  0  0  0  0  0  0
   -0.3619    1.1082    7.2873 H   0  0  0  0  0  0  0  0  0  0  0  0
    2.1488    2.4009    6.7234 H   0  0  0  0  0  0  0  0  0  0  0  0
    3.3941    1.7673    5.6679 H   0  0  0  0  0  0  0  0  0  0  0  0
    3.8641    4.1453    6.2250 H   0  0  0  0  0  0  0  0  0  0  0  0
    3.5289    4.0103    4.4895 H   0  0  0  0  0  0  0  0  0  0  0  0
    2.2935    4.6413    5.5870 H   0  0  0  0  0  0  0  0  0  0  0  0
   -2.4069    2.3532    3.9217 H   0  0  0  0  0  0  0  0  0  0  0  0
   -1.9713    1.7410    2.3526 H   0  0  0  0  0  0  0  0  0  0  0  0
   -0.8961   -1.1901    3.8723 H   0  0  0  0  0  0  0  0  0  0  0  0
   -2.4226   -1.9588    3.4163 H   0  0  0  0  0  0  0  0  0  0  0  0
   -1.5371   -0.9924    2.2315 H   0  0  0  0  0  0  0  0  0  0  0  0
   -1.8929   -0.0342    5.8095 H   0  0  0  0  0  0  0  0  0  0  0  0
   -3.3657    0.9525    5.6632 H   0  0  0  0  0  0  0  0  0  0  0  0
   -3.4458   -0.8131    5.5005 H   0  0  0  0  0  0  0  0  0  0  0  0
   -4.6352   -0.5680    3.4736 H   0  0  0  0  0  0  0  0  0  0  0  0
   -4.4784    1.1853    3.2016 H   0  0  0  0  0  0  0  0  0  0  0  0
   -4.1711    0.2042   -0.9881 H   0  0  0  0  0  0  0  0  0  0  0  0
   -3.3223   -1.8440    0.1254 H   0  0  0  0  0  0  0  0  0  0  0  0
   -1.6054   -2.0483   -0.6633 H   0  0  0  0  0  0  0  0  0  0  0  0
   -0.2405   -4.4796   -1.7020 H   0  0  0  0  0  0  0  0  0  0  0  0
    0.7058   -5.7633   -0.2015 H   0  0  0  0  0  0  0  0  0  0  0  0
   -1.6026   -6.6119    1.6169 H   0  0  0  0  0  0  0  0  0  0  0  0
    0.5043   -7.9301    2.0611 H   0  0  0  0  0  0  0  0  0  0  0  0
   -0.7314   -8.9082    1.2703 H   0  0  0  0  0  0  0  0  0  0  0  0
    0.6342   -8.2803    0.3312 H   0  0  0  0  0  0  0  0  0  0  0  0
   -2.2935   -7.9699   -0.3603 H   0  0  0  0  0  0  0  0  0  0  0  0
   -2.4079   -6.2369   -0.6592 H   0  0  0  0  0  0  0  0  0  0  0  0
   -1.0541   -7.1634   -1.3384 H   0  0  0  0  0  0  0  0  0  0  0  0
    2.2857   -2.0901    2.5149 H   0  0  0  0  0  0  0  0  0  0  0  0
    1.4867   -2.9936    3.7918 H   0  0  0  0  0  0  0  0  0  0  0  0
    2.9891   -1.2915    4.7279 H   0  0  0  0  0  0  0  0  0  0  0  0
    3.4920   -2.9099    5.2222 H   0  0  0  0  0  0  0  0  0  0  0  0
    7.8145   -2.2033    0.9332 H   0  0  0  0  0  0  0  0  0  0  0  0
    7.9184   -1.8340   -0.7735 H   0  0  0  0  0  0  0  0  0  0  0  0
    9.4087   -2.0168    0.1679 H   0  0  0  0  0  0  0  0  0  0  0  0
    8.9183    1.5965   -0.5272 H   0  0  0  0  0  0  0  0  0  0  0  0
   10.1930    0.3547   -0.4602 H   0  0  0  0  0  0  0  0  0  0  0  0
    8.8076    0.1956   -1.5550 H   0  0  0  0  0  0  0  0  0  0  0  0
    8.9061    1.9639    3.1248 H   0  0  0  0  0  0  0  0  0  0  0  0
    9.6816    2.1175    1.5523 H   0  0  0  0  0  0  0  0  0  0  0  0
    7.9104    2.2168    1.6923 H   0  0  0  0  0  0  0  0  0  0  0  0
   10.2453   -0.1300    3.3902 H   0  0  0  0  0  0  0  0  0  0  0  0
    9.9540   -1.5586    2.4099 H   0  0  0  0  0  0  0  0  0  0  0  0
   10.8596   -0.1889    1.7365 H   0  0  0  0  0  0  0  0  0  0  0  0
    6.3201   -2.9915    2.7844 H   0  0  0  0  0  0  0  0  0  0  0  0
    5.5337   -3.9270    4.0448 H   0  0  0  0  0  0  0  0  0  0  0  0
    4.8971   -4.8002    1.8421 H   0  0  0  0  0  0  0  0  0  0  0  0
    4.4159   -3.1911    1.3011 H   0  0  0  0  0  0  0  0  0  0  0  0
    1.0148   -5.2312    3.9494 H   0  0  0  0  0  0  0  0  0  0  0  0
   -0.3353   -4.3225    3.2503 H   0  0  0  0  0  0  0  0  0  0  0  0
   -0.3530   -6.1026    3.2963 H   0  0  0  0  0  0  0  0  0  0  0  0
   -0.5387   -2.6361   -3.4708 H   0  0  0  0  0  0  0  0  0  0  0  0
   -1.3707   -1.1669   -2.9681 H   0  0  0  0  0  0  0  0  0  0  0  0
    0.8420   -0.5271   -2.9494 H   0  0  0  0  0  0  0  0  0  0  0  0
   -0.1803    0.0493   -0.8194 H   0  0  0  0  0  0  0  0  0  0  0  0
    0.3793   -1.4873   -0.0651 H   0  0  0  0  0  0  0  0  0  0  0  0
    4.0042   -0.5046   -0.6277 H   0  0  0  0  0  0  0  0  0  0  0  0
    3.0337   -1.8408    0.0518 H   0  0  0  0  0  0  0  0  0  0  0  0
    3.1095   -0.8774   -2.8652 H   0  0  0  0  0  0  0  0  0  0  0  0
    3.7413   -2.4023   -2.2207 H   0  0  0  0  0  0  0  0  0  0  0  0
   -4.8608   -2.8826   -3.5926 H   0  0  0  0  0  0  0  0  0  0  0  0
   -5.6832   -3.3647   -2.0972 H   0  0  0  0  0  0  0  0  0  0  0  0
   -5.4126   -0.5358   -3.2659 H   0  0  0  0  0  0  0  0  0  0  0  0
   -6.9082   -1.4631   -3.1169 H   0  0  0  0  0  0  0  0  0  0  0  0
   -6.8354   -1.3119   -0.6811 H   0  0  0  0  0  0  0  0  0  0  0  0
   -6.6247    0.3076   -1.3360 H   0  0  0  0  0  0  0  0  0  0  0  0
    4.0401    1.6461    3.3110 H   0  0  0  0  0  0  0  0  0  0  0  0
    4.0497    0.7100    1.0699 H   0  0  0  0  0  0  0  0  0  0  0  0
   -0.2599    0.5778    1.1179 H   0  0  0  0  0  0  0  0  0  0  0  0
  1  2  1  0
  2  3  1  0
  2  5  1  0
  3  4  1  0
  5  6  2  0
  5 10  1  0
  6  7  1  0
  7  8  2  0
  8  9  1  0
  9 10  2  0
 10 11  1  0
 11 12  1  0
 11 15  2  0
 12 13  1  0
 12 68  1  0
 13 14  1  0
 15 16  1  0
 15 67  1  0
 16 17  1  0
 17 18  1  0
 17 19  1  0
 17 20  1  0
 20 21  1  0
 21 22  1  0
 22 23  1  0
 22 66  2  0
 23 24  1  0
 23 65  1  0
 24 25  1  0
 25 26  1  0
 25 63  1  0
 26 27  1  0
 26 62  2  0
 27 28  1  0
 27 55  1  0
 28 29  1  0
 29 30  1  0
 29 54  2  0
 30 31  1  0
 30 34  1  0
 31 32  1  0
 31 33  1  0
 34 35  1  0
 34 53  1  0
 35 36  1  0
 35 52  2  0
 36 37  1  0
 36 51  1  0
 36 73  1  0
 37 38  1  0
 38 39  1  0
 39 40  1  0
 39 50  1  0
 40 41  1  0
 40 49  2  0
 42 43  1  0
 43 44  1  0
 43 47  1  0
 43 48  1  0
 44 45  1  0
 44 46  1  0
 50 51  1  0
 55 56  1  0
 56 57  1  0
 56 61  1  0
 57 58  1  0
 58 59  1  0
 58 71  1  0
 59 60  1  0
 60 61  1  0
 63 64  1  0
 64 65  1  0
 67 68  2  0
 67 72  1  0
 68 69  1  0
 69 70  2  0
 70 71  1  0
 71 72  2  0
 41 42  3  0
  1 74  1  0
  1 75  1  0
  1 76  1  0
  2 77  1  6
  4 78  1  0
  4 79  1  0
  4 80  1  0
  7 81  1  0
  8 82  1  0
  9 83  1  0
 13 84  1  0
 13 85  1  0
 14 86  1  0
 14 87  1  0
 14 88  1  0
 16 89  1  0
 16 90  1  0
 18 91  1  0
 18 92  1  0
 18 93  1  0
 19 94  1  0
 19 95  1  0
 19 96  1  0
 20 97  1  0
 20 98  1  0
 23 99  1  6
 24100  1  0
 27101  1  1
 28102  1  0
 30103  1  6
 31104  1  0
 32105  1  0
 32106  1  0
 32107  1  0
 33108  1  0
 33109  1  0
 33110  1  0
 37111  1  0
 37112  1  0
 38113  1  0
 38114  1  0
 45115  1  0
 45116  1  0
 45117  1  0
 46118  1  0
 46119  1  0
 46120  1  0
 47121  1  0
 47122  1  0
 47123  1  0
 48124  1  0
 48125  1  0
 48126  1  0
 50127  1  0
 50128  1  0
 51129  1  0
 51130  1  0
 53131  1  0
 53132  1  0
 53133  1  0
 55134  1  0
 55135  1  0
 56136  1  6
 57137  1  0
 57138  1  0
 59139  1  0
 59140  1  0
 60141  1  0
 60142  1  0
 63143  1  0
 63144  1  0
 64145  1  0
 64146  1  0
 65147  1  0
 65148  1  0
 69149  1  0
 70150  1  0
 72151  1  0
M  END
$$$$
