mol_ETKDG3_78
  PyMOL3.1          3D                             0

 73 79  0  0  0  0  0  0  0  0999 V2000
   -0.0290   15.2010  -13.0827 C   0  0  0  0  0  0  0  0  0  0  0  0
   -0.2062   14.7812  -11.6374 C   0  0  0  0  0  0  0  0  0  0  0  0
   -0.5803   15.8336  -10.8072 O   0  0  0  0  0  0  0  0  0  0  0  0
   -1.9620   16.1807  -10.7500 C   0  0  0  0  0  0  0  0  0  0  0  0
    1.0363   14.1963  -11.0873 C   0  0  0  0  0  0  0  0  0  0  0  0
    2.1897   14.7678  -11.3842 N   0  0  0  0  0  0  0  0  0  0  0  0
    3.3471   14.2604  -10.9232 C   0  0  0  0  0  0  0  0  0  0  0  0
    3.3630   13.1053  -10.1334 C   0  0  0  0  0  0  0  0  0  0  0  0
    2.1746   12.5158   -9.8323 C   0  0  0  0  0  0  0  0  0  0  0  0
    1.0182   13.0609  -10.3054 C   0  0  0  0  0  0  0  0  0  0  0  0
   -0.2287   12.4593   -9.9447 C   0  0  0  0  0  0  0  0  0  0  0  0
   -0.8397   11.4666  -10.6457 N   0  0  0  0  0  0  0  0  0  0  0  0
   -0.3682   10.7922  -11.8590 C   0  0  0  0  0  0  0  0  0  0  0  0
    0.2256    9.4348  -11.4961 C   0  0  0  0  0  0  0  0  0  0  0  0
   -1.0210   12.8335   -8.8807 C   0  0  0  0  0  0  0  0  0  0  0  0
   -0.8228   13.8932   -7.8381 C   0  0  0  0  0  0  0  0  0  0  0  0
   -0.1805   13.4078   -6.5127 C   0  0  0  0  0  0  0  0  0  0  0  0
   -0.9311   14.0625   -5.3514 C   0  0  0  0  0  0  0  0  0  0  0  0
    1.2950   13.8638   -6.4636 C   0  0  0  0  0  0  0  0  0  0  0  0
   -0.1421   11.9900   -6.3332 C   0  0  0  0  0  0  0  0  0  0  0  0
   -0.7911   11.4167   -5.1766 O   0  0  0  0  0  0  0  0  0  0  0  0
   -1.0432   10.0442   -5.0574 C   0  0  0  0  0  0  0  0  0  0  0  0
   -1.7534    9.7063   -3.8008 C   0  0  0  0  0  0  0  0  0  0  0  0
   -2.4434    8.4391   -3.9943 N   0  0  0  0  0  0  0  0  0  0  0  0
   -3.1091    8.0036   -2.8812 N   0  0  0  0  0  0  0  0  0  0  0  0
   -4.4693    7.9144   -2.8708 C   0  0  0  0  0  0  0  0  0  0  0  0
   -5.1880    8.2353   -4.1541 C   0  0  0  0  0  0  0  0  0  0  0  0
   -6.3625    7.4103   -4.3571 N   0  0  0  0  0  0  0  0  0  0  0  0
   -6.4435    6.4426   -5.2740 C   0  0  0  0  0  0  0  0  0  0  0  0
   -7.8054    5.8560   -5.4268 C   0  0  0  0  0  0  0  0  0  0  0  0
   -7.9033    4.3538   -5.0338 C   0  0  0  0  0  0  0  0  0  0  0  0
   -9.3250    3.8525   -5.2553 C   0  0  0  0  0  0  0  0  0  0  0  0
   -7.5185    4.1792   -3.5632 C   0  0  0  0  0  0  0  0  0  0  0  0
   -8.2363    6.0499   -6.7873 N   0  0  0  0  0  0  0  0  0  0  0  0
   -9.1393    7.0288   -7.0307 C   0  0  0  0  0  0  0  0  0  0  0  0
   -9.7712    7.1078   -8.3927 C   0  0  0  0  0  0  0  0  0  0  0  0
  -10.6919    8.3013   -8.5628 C   0  0  0  0  0  0  0  0  0  0  0  0
  -11.3088    8.2277   -9.9015 C   0  0  0  0  0  0  0  0  0  0  0  0
  -11.9578    6.9159  -10.0665 N   0  0  0  0  0  0  0  0  0  0  0  0
  -13.2572    6.7696  -10.3406 C   0  0  0  0  0  0  0  0  0  0  0  0
  -14.0261    7.9089  -10.4654 C   0  0  0  0  0  0  0  0  0  0  0  0
  -14.7436    8.7803  -10.5996 C   0  0  0  0  0  0  0  0  0  0  0  0
  -15.5971    9.9193  -10.6960 C   0  0  0  0  0  0  0  0  0  0  0  0
  -15.2901   10.9038   -9.6548 N   0  0  0  0  0  0  0  0  0  0  0  0
  -14.9889   10.3338   -8.3384 C   0  0  0  0  0  0  0  0  0  0  0  0
  -14.3862   11.9836  -10.0194 C   0  0  0  0  0  0  0  0  0  0  0  0
  -17.0509    9.4627  -10.5190 C   0  0  0  0  0  0  0  0  0  0  0  0
  -15.4023   10.5316  -12.0825 C   0  0  0  0  0  0  0  0  0  0  0  0
  -13.7513    5.6584  -10.4649 O   0  0  0  0  0  0  0  0  0  0  0  0
  -11.1715    5.7444   -9.8848 C   0  0  0  0  0  0  0  0  0  0  0  0
  -10.5899    5.8357   -8.5324 C   0  0  0  0  0  0  0  0  0  0  0  0
   -9.4723    7.8188   -6.1398 O   0  0  0  0  0  0  0  0  0  0  0  0
   -7.6356    5.1628   -7.8211 C   0  0  0  0  0  0  0  0  0  0  0  0
   -5.4815    6.1093   -5.9563 O   0  0  0  0  0  0  0  0  0  0  0  0
   -5.6442    9.7133   -4.0792 C   0  0  0  0  0  0  0  0  0  0  0  0
   -6.1407   10.1798   -5.4250 C   0  0  0  0  0  0  0  0  0  0  0  0
   -4.9389   10.4276   -6.2848 C   0  0  0  0  0  0  0  0  0  0  0  0
   -5.3468   10.9974   -7.5800 N   0  0  0  0  0  0  0  0  0  0  0  0
   -6.2106   12.2472   -7.3569 C   0  0  0  0  0  0  0  0  0  0  0  0
   -7.3865   11.9071   -6.5148 C   0  0  0  0  0  0  0  0  0  0  0  0
   -6.9313   11.3535   -5.2568 O   0  0  0  0  0  0  0  0  0  0  0  0
   -5.1016    7.6672   -1.8676 O   0  0  0  0  0  0  0  0  0  0  0  0
   -2.2686    7.7758   -1.7144 C   0  0  0  0  0  0  0  0  0  0  0  0
   -1.5121    9.0956   -1.3981 C   0  0  0  0  0  0  0  0  0  0  0  0
   -0.7821    9.5799   -2.6310 C   0  0  0  0  0  0  0  0  0  0  0  0
   -0.7627    9.1091   -5.8560 O   0  0  0  0  0  0  0  0  0  0  0  0
   -2.1161   12.0089   -8.9559 C   0  0  0  0  0  0  0  0  0  0  0  0
   -1.9808   11.1615  -10.0451 C   0  0  0  0  0  0  0  0  0  0  0  0
   -3.0036   10.2058  -10.3226 C   0  0  0  0  0  0  0  0  0  0  0  0
   -4.0953   10.1609   -9.4841 C   0  0  0  0  0  0  0  0  0  0  0  0
   -4.2174   11.0621   -8.4026 C   0  0  0  0  0  0  0  0  0  0  0  0
   -3.1887   11.9667   -8.1512 C   0  0  0  0  0  0  0  0  0  0  0  0
   -8.7801    7.1978   -9.3651 F   0  0  0  0  0  0  0  0  0  0  0  0
  1  2  1  0  0  0  0
  2  3  1  0  0  0  0
  2  5  1  0  0  0  0
  3  4  1  0  0  0  0
  5  6  4  0  0  0  0
  5 10  4  0  0  0  0
  6  7  4  0  0  0  0
  7  8  4  0  0  0  0
  8  9  4  0  0  0  0
  9 10  4  0  0  0  0
 10 11  1  0  0  0  0
 11 12  4  0  0  0  0
 11 15  4  0  0  0  0
 12 13  1  0  0  0  0
 12 68  4  0  0  0  0
 13 14  1  0  0  0  0
 15 16  1  0  0  0  0
 15 67  4  0  0  0  0
 16 17  1  0  0  0  0
 17 18  1  0  0  0  0
 17 19  1  0  0  0  0
 17 20  1  0  0  0  0
 20 21  1  0  0  0  0
 21 22  1  0  0  0  0
 22 23  1  0  0  0  0
 22 66  2  0  0  0  0
 23 24  1  0  0  0  0
 23 65  1  0  0  0  0
 24 25  1  0  0  0  0
 25 26  1  0  0  0  0
 25 63  1  0  0  0  0
 26 27  1  0  0  0  0
 26 62  2  0  0  0  0
 27 28  1  0  0  0  0
 27 55  1  0  0  0  0
 28 29  1  0  0  0  0
 29 30  1  0  0  0  0
 29 54  2  0  0  0  0
 30 31  1  0  0  0  0
 30 34  1  0  0  0  0
 31 32  1  0  0  0  0
 31 33  1  0  0  0  0
 34 35  1  0  0  0  0
 34 53  1  0  0  0  0
 35 36  1  0  0  0  0
 35 52  2  0  0  0  0
 36 37  1  0  0  0  0
 36 51  1  0  0  0  0
 36 73  1  0  0  0  0
 37 38  1  0  0  0  0
 38 39  1  0  0  0  0
 39 40  1  0  0  0  0
 39 50  1  0  0  0  0
 40 41  1  0  0  0  0
 40 49  2  0  0  0  0
 41 42  1  0  0  0  0
 42 43  1  0  0  0  0
 43 44  1  0  0  0  0
 43 47  1  0  0  0  0
 43 48  1  0  0  0  0
 44 45  1  0  0  0  0
 44 46  1  0  0  0  0
 50 51  1  0  0  0  0
 55 56  1  0  0  0  0
 56 57  1  0  0  0  0
 56 61  1  0  0  0  0
 57 58  1  0  0  0  0
 58 59  1  0  0  0  0
 58 71  1  0  0  0  0
 59 60  1  0  0  0  0
 60 61  1  0  0  0  0
 63 64  1  0  0  0  0
 64 65  1  0  0  0  0
 67 68  4  0  0  0  0
 67 72  4  0  0  0  0
 68 69  4  0  0  0  0
 69 70  4  0  0  0  0
 70 71  4  0  0  0  0
 71 72  4  0  0  0  0
M  END
$$$$
