mol_ETKDG5_147
  PyMOL3.1          3D                             0

 73 79  0  0  0  0  0  0  0  0999 V2000
   -0.1217   14.8509  -13.1396 C   0  0  0  0  0  0  0  0  0  0  0  0
   -0.0845   14.8485  -11.6185 C   0  0  0  0  0  0  0  0  0  0  0  0
   -0.2367   16.1286  -11.0474 O   0  0  0  0  0  0  0  0  0  0  0  0
   -1.5147   16.5122  -10.5850 C   0  0  0  0  0  0  0  0  0  0  0  0
    1.1826   14.3061  -11.1072 C   0  0  0  0  0  0  0  0  0  0  0  0
    2.3022   14.9227  -11.4425 N   0  0  0  0  0  0  0  0  0  0  0  0
    3.4836   14.4514  -11.0104 C   0  0  0  0  0  0  0  0  0  0  0  0
    3.5582   13.3032  -10.2181 C   0  0  0  0  0  0  0  0  0  0  0  0
    2.4029   12.6686   -9.8838 C   0  0  0  0  0  0  0  0  0  0  0  0
    1.2132   13.1707  -10.3255 C   0  0  0  0  0  0  0  0  0  0  0  0
   -0.0182   12.5206   -9.9335 C   0  0  0  0  0  0  0  0  0  0  0  0
   -0.6022   11.4961  -10.6098 N   0  0  0  0  0  0  0  0  0  0  0  0
   -0.0968   10.8154  -11.7969 C   0  0  0  0  0  0  0  0  0  0  0  0
    0.5384    9.4852  -11.3800 C   0  0  0  0  0  0  0  0  0  0  0  0
   -0.8220   12.8893   -8.8666 C   0  0  0  0  0  0  0  0  0  0  0  0
   -0.6357   13.9326   -7.8296 C   0  0  0  0  0  0  0  0  0  0  0  0
    0.0712   13.4440   -6.5251 C   0  0  0  0  0  0  0  0  0  0  0  0
   -0.5760   14.1518   -5.3330 C   0  0  0  0  0  0  0  0  0  0  0  0
    1.5633   13.8362   -6.5651 C   0  0  0  0  0  0  0  0  0  0  0  0
    0.0648   12.0192   -6.3119 C   0  0  0  0  0  0  0  0  0  0  0  0
   -0.6490   11.4681   -5.1638 O   0  0  0  0  0  0  0  0  0  0  0  0
   -0.9664   10.0995   -5.0456 C   0  0  0  0  0  0  0  0  0  0  0  0
   -1.6952    9.7695   -3.7830 C   0  0  0  0  0  0  0  0  0  0  0  0
   -2.4015    8.5115   -3.9850 N   0  0  0  0  0  0  0  0  0  0  0  0
   -3.0799    8.0654   -2.8691 N   0  0  0  0  0  0  0  0  0  0  0  0
   -4.4458    7.9705   -2.8609 C   0  0  0  0  0  0  0  0  0  0  0  0
   -5.1570    8.2828   -4.1460 C   0  0  0  0  0  0  0  0  0  0  0  0
   -6.3424    7.4718   -4.3482 N   0  0  0  0  0  0  0  0  0  0  0  0
   -6.4149    6.4964   -5.2546 C   0  0  0  0  0  0  0  0  0  0  0  0
   -7.7766    5.8981   -5.4152 C   0  0  0  0  0  0  0  0  0  0  0  0
   -7.8289    4.3890   -5.0019 C   0  0  0  0  0  0  0  0  0  0  0  0
   -9.2140    3.8220   -5.2498 C   0  0  0  0  0  0  0  0  0  0  0  0
   -7.4800    4.2436   -3.5156 C   0  0  0  0  0  0  0  0  0  0  0  0
   -8.2059    6.0663   -6.7782 N   0  0  0  0  0  0  0  0  0  0  0  0
   -9.2545    6.8931   -7.0375 C   0  0  0  0  0  0  0  0  0  0  0  0
   -9.8735    6.8738   -8.4107 C   0  0  0  0  0  0  0  0  0  0  0  0
  -11.1631    7.6677   -8.5689 C   0  0  0  0  0  0  0  0  0  0  0  0
  -11.7400    7.4120   -9.9359 C   0  0  0  0  0  0  0  0  0  0  0  0
  -11.8211    5.9545  -10.1950 N   0  0  0  0  0  0  0  0  0  0  0  0
  -12.9025    5.2333  -10.5507 C   0  0  0  0  0  0  0  0  0  0  0  0
  -14.0823    5.8818  -10.7846 C   0  0  0  0  0  0  0  0  0  0  0  0
  -15.1271    6.2843  -11.0253 C   0  0  0  0  0  0  0  0  0  0  0  0
  -16.4051    6.8384  -11.2728 C   0  0  0  0  0  0  0  0  0  0  0  0
  -16.9728    7.3936  -10.0446 N   0  0  0  0  0  0  0  0  0  0  0  0
  -16.6959    6.6590   -8.8259 C   0  0  0  0  0  0  0  0  0  0  0  0
  -16.9852    8.8320   -9.8914 C   0  0  0  0  0  0  0  0  0  0  0  0
  -17.3529    5.7377  -11.7620 C   0  0  0  0  0  0  0  0  0  0  0  0
  -16.2435    7.9025  -12.3560 C   0  0  0  0  0  0  0  0  0  0  0  0
  -12.8525    4.0109  -10.6709 O   0  0  0  0  0  0  0  0  0  0  0  0
  -10.6490    5.2015  -10.0195 C   0  0  0  0  0  0  0  0  0  0  0  0
  -10.2398    5.4245   -8.6413 C   0  0  0  0  0  0  0  0  0  0  0  0
   -9.7247    7.6214   -6.1551 O   0  0  0  0  0  0  0  0  0  0  0  0
   -7.4463    5.3006   -7.8164 C   0  0  0  0  0  0  0  0  0  0  0  0
   -5.4469    6.1396   -5.9201 O   0  0  0  0  0  0  0  0  0  0  0  0
   -5.5968    9.7676   -4.0884 C   0  0  0  0  0  0  0  0  0  0  0  0
   -6.0410   10.2479   -5.4489 C   0  0  0  0  0  0  0  0  0  0  0  0
   -4.7996   10.4411   -6.2868 C   0  0  0  0  0  0  0  0  0  0  0  0
   -5.1512   11.0521   -7.5680 N   0  0  0  0  0  0  0  0  0  0  0  0
   -5.9849   12.3251   -7.3544 C   0  0  0  0  0  0  0  0  0  0  0  0
   -7.1910   12.0198   -6.5414 C   0  0  0  0  0  0  0  0  0  0  0  0
   -6.7844   11.4450   -5.2912 O   0  0  0  0  0  0  0  0  0  0  0  0
   -5.0798    7.7249   -1.8628 O   0  0  0  0  0  0  0  0  0  0  0  0
   -2.2465    7.8324   -1.6943 C   0  0  0  0  0  0  0  0  0  0  0  0
   -1.4669    9.1429   -1.3768 C   0  0  0  0  0  0  0  0  0  0  0  0
   -0.7309    9.6262   -2.6050 C   0  0  0  0  0  0  0  0  0  0  0  0
   -0.7267    9.1717   -5.8558 O   0  0  0  0  0  0  0  0  0  0  0  0
   -1.8994   12.0400   -8.9308 C   0  0  0  0  0  0  0  0  0  0  0  0
   -1.7378   11.1801   -9.9995 C   0  0  0  0  0  0  0  0  0  0  0  0
   -2.7456   10.2025  -10.2595 C   0  0  0  0  0  0  0  0  0  0  0  0
   -3.8495   10.1592   -9.4239 C   0  0  0  0  0  0  0  0  0  0  0  0
   -3.9985   11.0850   -8.3735 C   0  0  0  0  0  0  0  0  0  0  0  0
   -2.9642   11.9977   -8.1339 C   0  0  0  0  0  0  0  0  0  0  0  0
   -8.9448    7.3562   -9.3241 F   0  0  0  0  0  0  0  0  0  0  0  0
  1  2  1  0  0  0  0
  2  3  1  0  0  0  0
  2  5  1  0  0  0  0
  3  4  1  0  0  0  0
  5  6  4  0  0  0  0
  5 10  4  0  0  0  0
  6  7  4  0  0  0  0
  7  8  4  0  0  0  0
  8  9  4  0  0  0  0
  9 10  4  0  0  0  0
 10 11  1  0  0  0  0
 11 12  4  0  0  0  0
 11 15  4  0  0  0  0
 12 13  1  0  0  0  0
 12 68  4  0  0  0  0
 13 14  1  0  0  0  0
 15 16  1  0  0  0  0
 15 67  4  0  0  0  0
 16 17  1  0  0  0  0
 17 18  1  0  0  0  0
 17 19  1  0  0  0  0
 17 20  1  0  0  0  0
 20 21  1  0  0  0  0
 21 22  1  0  0  0  0
 22 23  1  0  0  0  0
 22 66  2  0  0  0  0
 23 24  1  0  0  0  0
 23 65  1  0  0  0  0
 24 25  1  0  0  0  0
 25 26  1  0  0  0  0
 25 63  1  0  0  0  0
 26 27  1  0  0  0  0
 26 62  2  0  0  0  0
 27 28  1  0  0  0  0
 27 55  1  0  0  0  0
 28 29  1  0  0  0  0
 29 30  1  0  0  0  0
 29 54  2  0  0  0  0
 30 31  1  0  0  0  0
 30 34  1  0  0  0  0
 31 32  1  0  0  0  0
 31 33  1  0  0  0  0
 34 35  1  0  0  0  0
 34 53  1  0  0  0  0
 35 36  1  0  0  0  0
 35 52  2  0  0  0  0
 36 37  1  0  0  0  0
 36 51  1  0  0  0  0
 36 73  1  0  0  0  0
 37 38  1  0  0  0  0
 38 39  1  0  0  0  0
 39 40  1  0  0  0  0
 39 50  1  0  0  0  0
 40 41  1  0  0  0  0
 40 49  2  0  0  0  0
 41 42  1  0  0  0  0
 42 43  1  0  0  0  0
 43 44  1  0  0  0  0
 43 47  1  0  0  0  0
 43 48  1  0  0  0  0
 44 45  1  0  0  0  0
 44 46  1  0  0  0  0
 50 51  1  0  0  0  0
 55 56  1  0  0  0  0
 56 57  1  0  0  0  0
 56 61  1  0  0  0  0
 57 58  1  0  0  0  0
 58 59  1  0  0  0  0
 58 71  1  0  0  0  0
 59 60  1  0  0  0  0
 60 61  1  0  0  0  0
 63 64  1  0  0  0  0
 64 65  1  0  0  0  0
 67 68  4  0  0  0  0
 67 72  4  0  0  0  0
 68 69  4  0  0  0  0
 69 70  4  0  0  0  0
 70 71  4  0  0  0  0
 71 72  4  0  0  0  0
M  END
$$$$
