mol_ETKDG1_48
  PyMOL3.1          3D                             0

 73 79  0  0  0  0  0  0  0  0999 V2000
    0.1052   16.5413  -10.9248 C   0  0  0  0  0  0  0  0  0  0  0  0
    0.1725   15.1102  -11.4540 C   0  0  0  0  0  0  0  0  0  0  0  0
    0.1634   15.0373  -12.8569 O   0  0  0  0  0  0  0  0  0  0  0  0
   -0.9445   14.3719  -13.4413 C   0  0  0  0  0  0  0  0  0  0  0  0
    1.3916   14.4221  -10.9764 C   0  0  0  0  0  0  0  0  0  0  0  0
    2.5601   14.9747  -11.2533 N   0  0  0  0  0  0  0  0  0  0  0  0
    3.6998   14.3860  -10.8758 C   0  0  0  0  0  0  0  0  0  0  0  0
    3.6845   13.1846  -10.1631 C   0  0  0  0  0  0  0  0  0  0  0  0
    2.4887   12.6182   -9.8694 C   0  0  0  0  0  0  0  0  0  0  0  0
    1.3378   13.2279  -10.2852 C   0  0  0  0  0  0  0  0  0  0  0  0
    0.0746   12.6289   -9.9514 C   0  0  0  0  0  0  0  0  0  0  0  0
   -0.5354   11.6463  -10.6708 N   0  0  0  0  0  0  0  0  0  0  0  0
   -0.0351   10.9950  -11.8828 C   0  0  0  0  0  0  0  0  0  0  0  0
    0.5411    9.6171  -11.5349 C   0  0  0  0  0  0  0  0  0  0  0  0
   -0.7465   12.9827   -8.8851 C   0  0  0  0  0  0  0  0  0  0  0  0
   -0.5634   14.0025   -7.8179 C   0  0  0  0  0  0  0  0  0  0  0  0
    0.1008   13.4927   -6.5148 C   0  0  0  0  0  0  0  0  0  0  0  0
   -0.5651   14.1850   -5.3183 C   0  0  0  0  0  0  0  0  0  0  0  0
    1.6079   13.8312   -6.4972 C   0  0  0  0  0  0  0  0  0  0  0  0
    0.0408   12.0449   -6.3324 C   0  0  0  0  0  0  0  0  0  0  0  0
   -0.6548   11.4920   -5.1848 O   0  0  0  0  0  0  0  0  0  0  0  0
   -0.9548   10.1243   -5.0599 C   0  0  0  0  0  0  0  0  0  0  0  0
   -1.6797    9.7921   -3.7928 C   0  0  0  0  0  0  0  0  0  0  0  0
   -2.3971    8.5443   -3.9933 N   0  0  0  0  0  0  0  0  0  0  0  0
   -3.0850    8.1122   -2.8827 N   0  0  0  0  0  0  0  0  0  0  0  0
   -4.4473    8.0285   -2.8874 C   0  0  0  0  0  0  0  0  0  0  0  0
   -5.1510    8.3498   -4.1837 C   0  0  0  0  0  0  0  0  0  0  0  0
   -6.3435    7.5640   -4.3746 N   0  0  0  0  0  0  0  0  0  0  0  0
   -6.4533    6.6100   -5.2990 C   0  0  0  0  0  0  0  0  0  0  0  0
   -7.8340    6.0445   -5.4229 C   0  0  0  0  0  0  0  0  0  0  0  0
   -7.9101    4.5243   -5.0837 C   0  0  0  0  0  0  0  0  0  0  0  0
   -9.3262    4.0117   -5.2899 C   0  0  0  0  0  0  0  0  0  0  0  0
   -7.4884    4.2982   -3.6241 C   0  0  0  0  0  0  0  0  0  0  0  0
   -8.3449    6.3350   -6.7455 N   0  0  0  0  0  0  0  0  0  0  0  0
   -9.2083    7.3813   -6.8704 C   0  0  0  0  0  0  0  0  0  0  0  0
  -10.0104    7.5449   -8.1390 C   0  0  0  0  0  0  0  0  0  0  0  0
  -10.9000    8.7898   -8.0778 C   0  0  0  0  0  0  0  0  0  0  0  0
  -11.7892    8.8300   -9.2527 C   0  0  0  0  0  0  0  0  0  0  0  0
  -12.5315    7.5597   -9.3467 N   0  0  0  0  0  0  0  0  0  0  0  0
  -13.8680    7.4579   -9.2556 C   0  0  0  0  0  0  0  0  0  0  0  0
  -14.5926    8.5643   -8.8232 C   0  0  0  0  0  0  0  0  0  0  0  0
  -15.2691    9.4236   -8.4661 C   0  0  0  0  0  0  0  0  0  0  0  0
  -16.0043   10.5333   -7.9147 C   0  0  0  0  0  0  0  0  0  0  0  0
  -15.3198   11.0479   -6.7206 N   0  0  0  0  0  0  0  0  0  0  0  0
  -15.0206   10.0081   -5.7221 C   0  0  0  0  0  0  0  0  0  0  0  0
  -14.1276   11.8617   -7.0143 C   0  0  0  0  0  0  0  0  0  0  0  0
  -17.4115   10.0503   -7.5087 C   0  0  0  0  0  0  0  0  0  0  0  0
  -16.0947   11.6272   -8.9855 C   0  0  0  0  0  0  0  0  0  0  0  0
  -14.4452    6.4008   -9.5002 O   0  0  0  0  0  0  0  0  0  0  0  0
  -11.7474    6.3548   -9.4405 C   0  0  0  0  0  0  0  0  0  0  0  0
  -10.9122    6.3141   -8.2113 C   0  0  0  0  0  0  0  0  0  0  0  0
   -9.3933    8.1629   -5.9265 O   0  0  0  0  0  0  0  0  0  0  0  0
   -7.8754    5.4784   -7.8665 C   0  0  0  0  0  0  0  0  0  0  0  0
   -5.5194    6.2574   -6.0116 O   0  0  0  0  0  0  0  0  0  0  0  0
   -5.5719    9.8493   -4.1341 C   0  0  0  0  0  0  0  0  0  0  0  0
   -6.0008   10.3320   -5.5139 C   0  0  0  0  0  0  0  0  0  0  0  0
   -4.7534   10.5721   -6.3256 C   0  0  0  0  0  0  0  0  0  0  0  0
   -5.1089   11.1517   -7.6380 N   0  0  0  0  0  0  0  0  0  0  0  0
   -5.9647   12.4058   -7.4393 C   0  0  0  0  0  0  0  0  0  0  0  0
   -7.1920   12.0558   -6.6467 C   0  0  0  0  0  0  0  0  0  0  0  0
   -6.7848   11.5102   -5.3745 O   0  0  0  0  0  0  0  0  0  0  0  0
   -5.0962    7.7838   -1.9015 O   0  0  0  0  0  0  0  0  0  0  0  0
   -2.2642    7.8652   -1.7040 C   0  0  0  0  0  0  0  0  0  0  0  0
   -1.4739    9.1650   -1.3861 C   0  0  0  0  0  0  0  0  0  0  0  0
   -0.7148    9.6380   -2.6165 C   0  0  0  0  0  0  0  0  0  0  0  0
   -0.7110    9.1926   -5.8659 O   0  0  0  0  0  0  0  0  0  0  0  0
   -1.8447   12.1653   -8.9815 C   0  0  0  0  0  0  0  0  0  0  0  0
   -1.6891   11.3379  -10.0819 C   0  0  0  0  0  0  0  0  0  0  0  0
   -2.7104   10.3941  -10.3731 C   0  0  0  0  0  0  0  0  0  0  0  0
   -3.8236   10.3370   -9.5415 C   0  0  0  0  0  0  0  0  0  0  0  0
   -3.9661   11.2199   -8.4477 C   0  0  0  0  0  0  0  0  0  0  0  0
   -2.9321   12.1193   -8.1829 C   0  0  0  0  0  0  0  0  0  0  0  0
   -9.1591    7.6349   -9.2336 F   0  0  0  0  0  0  0  0  0  0  0  0
  1  2  1  0  0  0  0
  2  3  1  0  0  0  0
  2  5  1  0  0  0  0
  3  4  1  0  0  0  0
  5  6  4  0  0  0  0
  5 10  4  0  0  0  0
  6  7  4  0  0  0  0
  7  8  4  0  0  0  0
  8  9  4  0  0  0  0
  9 10  4  0  0  0  0
 10 11  1  0  0  0  0
 11 12  4  0  0  0  0
 11 15  4  0  0  0  0
 12 13  1  0  0  0  0
 12 68  4  0  0  0  0
 13 14  1  0  0  0  0
 15 16  1  0  0  0  0
 15 67  4  0  0  0  0
 16 17  1  0  0  0  0
 17 18  1  0  0  0  0
 17 19  1  0  0  0  0
 17 20  1  0  0  0  0
 20 21  1  0  0  0  0
 21 22  1  0  0  0  0
 22 23  1  0  0  0  0
 22 66  2  0  0  0  0
 23 24  1  0  0  0  0
 23 65  1  0  0  0  0
 24 25  1  0  0  0  0
 25 26  1  0  0  0  0
 25 63  1  0  0  0  0
 26 27  1  0  0  0  0
 26 62  2  0  0  0  0
 27 28  1  0  0  0  0
 27 55  1  0  0  0  0
 28 29  1  0  0  0  0
 29 30  1  0  0  0  0
 29 54  2  0  0  0  0
 30 31  1  0  0  0  0
 30 34  1  0  0  0  0
 31 32  1  0  0  0  0
 31 33  1  0  0  0  0
 34 35  1  0  0  0  0
 34 53  1  0  0  0  0
 35 36  1  0  0  0  0
 35 52  2  0  0  0  0
 36 37  1  0  0  0  0
 36 51  1  0  0  0  0
 36 73  1  0  0  0  0
 37 38  1  0  0  0  0
 38 39  1  0  0  0  0
 39 40  1  0  0  0  0
 39 50  1  0  0  0  0
 40 41  1  0  0  0  0
 40 49  2  0  0  0  0
 41 42  1  0  0  0  0
 42 43  1  0  0  0  0
 43 44  1  0  0  0  0
 43 47  1  0  0  0  0
 43 48  1  0  0  0  0
 44 45  1  0  0  0  0
 44 46  1  0  0  0  0
 50 51  1  0  0  0  0
 55 56  1  0  0  0  0
 56 57  1  0  0  0  0
 56 61  1  0  0  0  0
 57 58  1  0  0  0  0
 58 59  1  0  0  0  0
 58 71  1  0  0  0  0
 59 60  1  0  0  0  0
 60 61  1  0  0  0  0
 63 64  1  0  0  0  0
 64 65  1  0  0  0  0
 67 68  4  0  0  0  0
 67 72  4  0  0  0  0
 68 69  4  0  0  0  0
 69 70  4  0  0  0  0
 70 71  4  0  0  0  0
 71 72  4  0  0  0  0
M  END
$$$$
