mol_ETKDG3_87
  PyMOL3.1          3D                             0

 73 79  0  0  0  0  0  0  0  0999 V2000
   -0.4721   16.2861  -11.4578 C   0  0  0  0  0  0  0  0  0  0  0  0
   -0.3351   14.8400  -11.9096 C   0  0  0  0  0  0  0  0  0  0  0  0
   -0.4301   14.6456  -13.2922 O   0  0  0  0  0  0  0  0  0  0  0  0
   -1.6801   14.2468  -13.8229 C   0  0  0  0  0  0  0  0  0  0  0  0
    0.9502   14.2558  -11.4746 C   0  0  0  0  0  0  0  0  0  0  0  0
    2.0758   14.8251  -11.8745 N   0  0  0  0  0  0  0  0  0  0  0  0
    3.2679   14.2986  -11.5368 C   0  0  0  0  0  0  0  0  0  0  0  0
    3.3435   13.1492  -10.7407 C   0  0  0  0  0  0  0  0  0  0  0  0
    2.1796   12.5693  -10.3283 C   0  0  0  0  0  0  0  0  0  0  0  0
    0.9907   13.1200  -10.6996 C   0  0  0  0  0  0  0  0  0  0  0  0
   -0.2278   12.5199  -10.2450 C   0  0  0  0  0  0  0  0  0  0  0  0
   -0.9108   11.5681  -10.9357 N   0  0  0  0  0  0  0  0  0  0  0  0
   -0.5459   10.9387  -12.2142 C   0  0  0  0  0  0  0  0  0  0  0  0
    0.0757    9.5657  -11.9666 C   0  0  0  0  0  0  0  0  0  0  0  0
   -0.9249   12.8608   -9.1007 C   0  0  0  0  0  0  0  0  0  0  0  0
   -0.6326   13.8623   -8.0177 C   0  0  0  0  0  0  0  0  0  0  0  0
    0.1048   13.3115   -6.7591 C   0  0  0  0  0  0  0  0  0  0  0  0
   -0.4249   14.0551   -5.5267 C   0  0  0  0  0  0  0  0  0  0  0  0
    1.6182   13.5980   -6.8888 C   0  0  0  0  0  0  0  0  0  0  0  0
   -0.0088   11.9002   -6.5571 C   0  0  0  0  0  0  0  0  0  0  0  0
   -0.6457   11.3902   -5.3410 O   0  0  0  0  0  0  0  0  0  0  0  0
   -0.9213   10.0209   -5.1451 C   0  0  0  0  0  0  0  0  0  0  0  0
   -1.6256    9.7255   -3.8615 C   0  0  0  0  0  0  0  0  0  0  0  0
   -2.3455    8.4643   -4.0199 N   0  0  0  0  0  0  0  0  0  0  0  0
   -3.0160    8.0506   -2.8897 N   0  0  0  0  0  0  0  0  0  0  0  0
   -4.3762    7.9644   -2.8721 C   0  0  0  0  0  0  0  0  0  0  0  0
   -5.0899    8.2870   -4.1569 C   0  0  0  0  0  0  0  0  0  0  0  0
   -6.2945    7.5011   -4.3481 N   0  0  0  0  0  0  0  0  0  0  0  0
   -6.4199    6.5471   -5.2787 C   0  0  0  0  0  0  0  0  0  0  0  0
   -7.8030    6.0074   -5.4132 C   0  0  0  0  0  0  0  0  0  0  0  0
   -7.9270    4.4906   -5.0765 C   0  0  0  0  0  0  0  0  0  0  0  0
   -9.3693    4.0317   -5.2775 C   0  0  0  0  0  0  0  0  0  0  0  0
   -7.5049    4.2481   -3.6243 C   0  0  0  0  0  0  0  0  0  0  0  0
   -8.2773    6.2956   -6.7435 N   0  0  0  0  0  0  0  0  0  0  0  0
   -9.1008    7.3694   -6.9002 C   0  0  0  0  0  0  0  0  0  0  0  0
   -9.8229    7.5405   -8.2099 C   0  0  0  0  0  0  0  0  0  0  0  0
  -10.5552    8.8657   -8.3397 C   0  0  0  0  0  0  0  0  0  0  0  0
  -11.2706    8.8761   -9.6271 C   0  0  0  0  0  0  0  0  0  0  0  0
  -12.1384    7.6873   -9.7285 N   0  0  0  0  0  0  0  0  0  0  0  0
  -13.4588    7.7642   -9.9602 C   0  0  0  0  0  0  0  0  0  0  0  0
  -14.0034    9.0208  -10.1361 C   0  0  0  0  0  0  0  0  0  0  0  0
  -14.5423    9.9932  -10.3269 C   0  0  0  0  0  0  0  0  0  0  0  0
  -15.0442   11.3242  -10.5110 C   0  0  0  0  0  0  0  0  0  0  0  0
  -15.7871   11.7754   -9.3286 N   0  0  0  0  0  0  0  0  0  0  0  0
  -15.3809   11.2162   -8.0486 C   0  0  0  0  0  0  0  0  0  0  0  0
  -16.1766   13.1600   -9.2846 C   0  0  0  0  0  0  0  0  0  0  0  0
  -15.9737   11.2957  -11.7260 C   0  0  0  0  0  0  0  0  0  0  0  0
  -13.8519   12.2775  -10.7873 C   0  0  0  0  0  0  0  0  0  0  0  0
  -14.1541    6.7642  -10.0156 O   0  0  0  0  0  0  0  0  0  0  0  0
  -11.5471    6.3996   -9.5564 C   0  0  0  0  0  0  0  0  0  0  0  0
  -10.8413    6.4066   -8.2595 C   0  0  0  0  0  0  0  0  0  0  0  0
   -9.3130    8.1549   -5.9663 O   0  0  0  0  0  0  0  0  0  0  0  0
   -7.8047    5.4105   -7.8413 C   0  0  0  0  0  0  0  0  0  0  0  0
   -5.4818    6.1959   -5.9845 O   0  0  0  0  0  0  0  0  0  0  0  0
   -5.4947    9.7816   -4.0870 C   0  0  0  0  0  0  0  0  0  0  0  0
   -5.9862   10.2758   -5.4214 C   0  0  0  0  0  0  0  0  0  0  0  0
   -4.7979   10.4721   -6.3232 C   0  0  0  0  0  0  0  0  0  0  0  0
   -5.2098   11.1173   -7.5766 N   0  0  0  0  0  0  0  0  0  0  0  0
   -6.0027   12.4033   -7.2791 C   0  0  0  0  0  0  0  0  0  0  0  0
   -7.1722   12.0846   -6.4368 C   0  0  0  0  0  0  0  0  0  0  0  0
   -6.7076   11.4845   -5.2092 O   0  0  0  0  0  0  0  0  0  0  0  0
   -5.0117    7.7272   -1.8672 O   0  0  0  0  0  0  0  0  0  0  0  0
   -2.1783    7.8304   -1.7215 C   0  0  0  0  0  0  0  0  0  0  0  0
   -1.3850    9.1416   -1.4376 C   0  0  0  0  0  0  0  0  0  0  0  0
   -0.6522    9.5961   -2.6917 C   0  0  0  0  0  0  0  0  0  0  0  0
   -0.6646    9.0545   -5.9112 O   0  0  0  0  0  0  0  0  0  0  0  0
   -2.0411   12.0674   -9.1240 C   0  0  0  0  0  0  0  0  0  0  0  0
   -2.0098   11.2669  -10.2564 C   0  0  0  0  0  0  0  0  0  0  0  0
   -3.0777   10.3531  -10.4974 C   0  0  0  0  0  0  0  0  0  0  0  0
   -4.1106   10.3078   -9.5823 C   0  0  0  0  0  0  0  0  0  0  0  0
   -4.1256   11.1661   -8.4605 C   0  0  0  0  0  0  0  0  0  0  0  0
   -3.0433   12.0214   -8.2442 C   0  0  0  0  0  0  0  0  0  0  0  0
   -8.9266    7.4725   -9.2623 F   0  0  0  0  0  0  0  0  0  0  0  0
  1  2  1  0  0  0  0
  2  3  1  0  0  0  0
  2  5  1  0  0  0  0
  3  4  1  0  0  0  0
  5  6  4  0  0  0  0
  5 10  4  0  0  0  0
  6  7  4  0  0  0  0
  7  8  4  0  0  0  0
  8  9  4  0  0  0  0
  9 10  4  0  0  0  0
 10 11  1  0  0  0  0
 11 12  4  0  0  0  0
 11 15  4  0  0  0  0
 12 13  1  0  0  0  0
 12 68  4  0  0  0  0
 13 14  1  0  0  0  0
 15 16  1  0  0  0  0
 15 67  4  0  0  0  0
 16 17  1  0  0  0  0
 17 18  1  0  0  0  0
 17 19  1  0  0  0  0
 17 20  1  0  0  0  0
 20 21  1  0  0  0  0
 21 22  1  0  0  0  0
 22 23  1  0  0  0  0
 22 66  2  0  0  0  0
 23 24  1  0  0  0  0
 23 65  1  0  0  0  0
 24 25  1  0  0  0  0
 25 26  1  0  0  0  0
 25 63  1  0  0  0  0
 26 27  1  0  0  0  0
 26 62  2  0  0  0  0
 27 28  1  0  0  0  0
 27 55  1  0  0  0  0
 28 29  1  0  0  0  0
 29 30  1  0  0  0  0
 29 54  2  0  0  0  0
 30 31  1  0  0  0  0
 30 34  1  0  0  0  0
 31 32  1  0  0  0  0
 31 33  1  0  0  0  0
 34 35  1  0  0  0  0
 34 53  1  0  0  0  0
 35 36  1  0  0  0  0
 35 52  2  0  0  0  0
 36 37  1  0  0  0  0
 36 51  1  0  0  0  0
 36 73  1  0  0  0  0
 37 38  1  0  0  0  0
 38 39  1  0  0  0  0
 39 40  1  0  0  0  0
 39 50  1  0  0  0  0
 40 41  1  0  0  0  0
 40 49  2  0  0  0  0
 41 42  1  0  0  0  0
 42 43  1  0  0  0  0
 43 44  1  0  0  0  0
 43 47  1  0  0  0  0
 43 48  1  0  0  0  0
 44 45  1  0  0  0  0
 44 46  1  0  0  0  0
 50 51  1  0  0  0  0
 55 56  1  0  0  0  0
 56 57  1  0  0  0  0
 56 61  1  0  0  0  0
 57 58  1  0  0  0  0
 58 59  1  0  0  0  0
 58 71  1  0  0  0  0
 59 60  1  0  0  0  0
 60 61  1  0  0  0  0
 63 64  1  0  0  0  0
 64 65  1  0  0  0  0
 67 68  4  0  0  0  0
 67 72  4  0  0  0  0
 68 69  4  0  0  0  0
 69 70  4  0  0  0  0
 70 71  4  0  0  0  0
 71 72  4  0  0  0  0
M  END
$$$$
