mol_ETKDG2_63
  PyMOL3.1          3D                             0

 73 79  0  0  0  0  0  0  0  0999 V2000
   -0.0584   16.5732  -11.4691 C   0  0  0  0  0  0  0  0  0  0  0  0
   -0.2450   15.1060  -11.1883 C   0  0  0  0  0  0  0  0  0  0  0  0
   -0.8102   14.4357  -12.2865 O   0  0  0  0  0  0  0  0  0  0  0  0
   -2.2174   14.5468  -12.4381 C   0  0  0  0  0  0  0  0  0  0  0  0
    1.0203   14.4212  -10.8565 C   0  0  0  0  0  0  0  0  0  0  0  0
    2.1770   15.0040  -11.1514 N   0  0  0  0  0  0  0  0  0  0  0  0
    3.3367   14.3963  -10.8904 C   0  0  0  0  0  0  0  0  0  0  0  0
    3.3672   13.1475  -10.2802 C   0  0  0  0  0  0  0  0  0  0  0  0
    2.1930   12.5463   -9.9767 C   0  0  0  0  0  0  0  0  0  0  0  0
    1.0221   13.1730  -10.2828 C   0  0  0  0  0  0  0  0  0  0  0  0
   -0.2188   12.5434   -9.9361 C   0  0  0  0  0  0  0  0  0  0  0  0
   -0.8386   11.5861  -10.6749 N   0  0  0  0  0  0  0  0  0  0  0  0
   -0.3805   10.9666  -11.9210 C   0  0  0  0  0  0  0  0  0  0  0  0
    0.1360    9.5599  -11.6270 C   0  0  0  0  0  0  0  0  0  0  0  0
   -1.0063   12.8672   -8.8432 C   0  0  0  0  0  0  0  0  0  0  0  0
   -0.7966   13.8703   -7.7620 C   0  0  0  0  0  0  0  0  0  0  0  0
   -0.0505   13.3446   -6.5079 C   0  0  0  0  0  0  0  0  0  0  0  0
   -0.6350   14.0294   -5.2749 C   0  0  0  0  0  0  0  0  0  0  0  0
    1.4496   13.7043   -6.5921 C   0  0  0  0  0  0  0  0  0  0  0  0
   -0.0899   11.9399   -6.3521 C   0  0  0  0  0  0  0  0  0  0  0  0
   -0.7324   11.3781   -5.1795 O   0  0  0  0  0  0  0  0  0  0  0  0
   -1.0095   10.0150   -5.0548 C   0  0  0  0  0  0  0  0  0  0  0  0
   -1.7226    9.6922   -3.7966 C   0  0  0  0  0  0  0  0  0  0  0  0
   -2.4128    8.4336   -3.9933 N   0  0  0  0  0  0  0  0  0  0  0  0
   -3.0817    8.0000   -2.8831 N   0  0  0  0  0  0  0  0  0  0  0  0
   -4.4382    7.9141   -2.8690 C   0  0  0  0  0  0  0  0  0  0  0  0
   -5.1554    8.2398   -4.1489 C   0  0  0  0  0  0  0  0  0  0  0  0
   -6.3200    7.4132   -4.3347 N   0  0  0  0  0  0  0  0  0  0  0  0
   -6.3830    6.4376   -5.2294 C   0  0  0  0  0  0  0  0  0  0  0  0
   -7.7290    5.8352   -5.3847 C   0  0  0  0  0  0  0  0  0  0  0  0
   -7.8065    4.3302   -4.9928 C   0  0  0  0  0  0  0  0  0  0  0  0
   -9.1969    3.7899   -5.2797 C   0  0  0  0  0  0  0  0  0  0  0  0
   -7.4835    4.1699   -3.5008 C   0  0  0  0  0  0  0  0  0  0  0  0
   -8.1605    6.0465   -6.7336 N   0  0  0  0  0  0  0  0  0  0  0  0
   -9.1240    6.9713   -6.9319 C   0  0  0  0  0  0  0  0  0  0  0  0
   -9.7926    7.0759   -8.2695 C   0  0  0  0  0  0  0  0  0  0  0  0
  -11.0809    7.8716   -8.1412 C   0  0  0  0  0  0  0  0  0  0  0  0
  -11.8632    7.7882   -9.3967 C   0  0  0  0  0  0  0  0  0  0  0  0
  -12.0098    6.3761   -9.7442 N   0  0  0  0  0  0  0  0  0  0  0  0
  -13.1458    5.6569   -9.6589 C   0  0  0  0  0  0  0  0  0  0  0  0
  -14.2394    6.2551   -9.0940 C   0  0  0  0  0  0  0  0  0  0  0  0
  -15.1795    6.6895   -8.6473 C   0  0  0  0  0  0  0  0  0  0  0  0
  -16.2988    7.3018   -7.9839 C   0  0  0  0  0  0  0  0  0  0  0  0
  -15.8036    8.3463   -7.0698 N   0  0  0  0  0  0  0  0  0  0  0  0
  -14.8992    7.8332   -6.0223 C   0  0  0  0  0  0  0  0  0  0  0  0
  -15.2377    9.5216   -7.7648 C   0  0  0  0  0  0  0  0  0  0  0  0
  -17.0481    6.2399   -7.1885 C   0  0  0  0  0  0  0  0  0  0  0  0
  -17.1974    7.9221   -9.0519 C   0  0  0  0  0  0  0  0  0  0  0  0
  -13.1943    4.4897  -10.0360 O   0  0  0  0  0  0  0  0  0  0  0  0
  -10.8299    5.6504   -9.9832 C   0  0  0  0  0  0  0  0  0  0  0  0
  -10.1652    5.6642   -8.6604 C   0  0  0  0  0  0  0  0  0  0  0  0
   -9.4882    7.7135   -6.0151 O   0  0  0  0  0  0  0  0  0  0  0  0
   -7.4822    5.2507   -7.7933 C   0  0  0  0  0  0  0  0  0  0  0  0
   -5.4213    6.1035   -5.9122 O   0  0  0  0  0  0  0  0  0  0  0  0
   -5.6221    9.7100   -4.0809 C   0  0  0  0  0  0  0  0  0  0  0  0
   -6.0969   10.1689   -5.4406 C   0  0  0  0  0  0  0  0  0  0  0  0
   -4.8915   10.4337   -6.2848 C   0  0  0  0  0  0  0  0  0  0  0  0
   -5.3010   11.0000   -7.5765 N   0  0  0  0  0  0  0  0  0  0  0  0
   -6.1891   12.2259   -7.3629 C   0  0  0  0  0  0  0  0  0  0  0  0
   -7.3721   11.8525   -6.5327 C   0  0  0  0  0  0  0  0  0  0  0  0
   -6.9058   11.3296   -5.2800 O   0  0  0  0  0  0  0  0  0  0  0  0
   -5.0695    7.6594   -1.8758 O   0  0  0  0  0  0  0  0  0  0  0  0
   -2.2499    7.7656   -1.7086 C   0  0  0  0  0  0  0  0  0  0  0  0
   -1.4937    9.0789   -1.3905 C   0  0  0  0  0  0  0  0  0  0  0  0
   -0.7551    9.5652   -2.6199 C   0  0  0  0  0  0  0  0  0  0  0  0
   -0.7536    9.0737   -5.8498 O   0  0  0  0  0  0  0  0  0  0  0  0
   -2.0995   12.0508   -8.9424 C   0  0  0  0  0  0  0  0  0  0  0  0
   -1.9739   11.2602  -10.0712 C   0  0  0  0  0  0  0  0  0  0  0  0
   -3.0006   10.3247  -10.3763 C   0  0  0  0  0  0  0  0  0  0  0  0
   -4.0839   10.2465   -9.5288 C   0  0  0  0  0  0  0  0  0  0  0  0
   -4.1915   11.0920   -8.4024 C   0  0  0  0  0  0  0  0  0  0  0  0
   -3.1541   11.9791   -8.1249 C   0  0  0  0  0  0  0  0  0  0  0  0
   -8.9259    7.6590   -9.1789 F   0  0  0  0  0  0  0  0  0  0  0  0
  1  2  1  0  0  0  0
  2  3  1  0  0  0  0
  2  5  1  0  0  0  0
  3  4  1  0  0  0  0
  5  6  4  0  0  0  0
  5 10  4  0  0  0  0
  6  7  4  0  0  0  0
  7  8  4  0  0  0  0
  8  9  4  0  0  0  0
  9 10  4  0  0  0  0
 10 11  1  0  0  0  0
 11 12  4  0  0  0  0
 11 15  4  0  0  0  0
 12 13  1  0  0  0  0
 12 68  4  0  0  0  0
 13 14  1  0  0  0  0
 15 16  1  0  0  0  0
 15 67  4  0  0  0  0
 16 17  1  0  0  0  0
 17 18  1  0  0  0  0
 17 19  1  0  0  0  0
 17 20  1  0  0  0  0
 20 21  1  0  0  0  0
 21 22  1  0  0  0  0
 22 23  1  0  0  0  0
 22 66  2  0  0  0  0
 23 24  1  0  0  0  0
 23 65  1  0  0  0  0
 24 25  1  0  0  0  0
 25 26  1  0  0  0  0
 25 63  1  0  0  0  0
 26 27  1  0  0  0  0
 26 62  2  0  0  0  0
 27 28  1  0  0  0  0
 27 55  1  0  0  0  0
 28 29  1  0  0  0  0
 29 30  1  0  0  0  0
 29 54  2  0  0  0  0
 30 31  1  0  0  0  0
 30 34  1  0  0  0  0
 31 32  1  0  0  0  0
 31 33  1  0  0  0  0
 34 35  1  0  0  0  0
 34 53  1  0  0  0  0
 35 36  1  0  0  0  0
 35 52  2  0  0  0  0
 36 37  1  0  0  0  0
 36 51  1  0  0  0  0
 36 73  1  0  0  0  0
 37 38  1  0  0  0  0
 38 39  1  0  0  0  0
 39 40  1  0  0  0  0
 39 50  1  0  0  0  0
 40 41  1  0  0  0  0
 40 49  2  0  0  0  0
 41 42  1  0  0  0  0
 42 43  1  0  0  0  0
 43 44  1  0  0  0  0
 43 47  1  0  0  0  0
 43 48  1  0  0  0  0
 44 45  1  0  0  0  0
 44 46  1  0  0  0  0
 50 51  1  0  0  0  0
 55 56  1  0  0  0  0
 56 57  1  0  0  0  0
 56 61  1  0  0  0  0
 57 58  1  0  0  0  0
 58 59  1  0  0  0  0
 58 71  1  0  0  0  0
 59 60  1  0  0  0  0
 60 61  1  0  0  0  0
 63 64  1  0  0  0  0
 64 65  1  0  0  0  0
 67 68  4  0  0  0  0
 67 72  4  0  0  0  0
 68 69  4  0  0  0  0
 69 70  4  0  0  0  0
 70 71  4  0  0  0  0
 71 72  4  0  0  0  0
M  END
$$$$
