mol_ETKDG4_106
  PyMOL3.1          3D                             0

 73 79  0  0  0  0  0  0  0  0999 V2000
   -0.0905   16.6580  -11.5630 C   0  0  0  0  0  0  0  0  0  0  0  0
   -0.2344   15.1629  -11.4354 C   0  0  0  0  0  0  0  0  0  0  0  0
   -0.7642   14.5616  -12.5950 O   0  0  0  0  0  0  0  0  0  0  0  0
   -2.1737   14.5716  -12.7528 C   0  0  0  0  0  0  0  0  0  0  0  0
    1.0524   14.4901  -11.1444 C   0  0  0  0  0  0  0  0  0  0  0  0
    2.1854   15.0682  -11.5214 N   0  0  0  0  0  0  0  0  0  0  0  0
    3.3717   14.4556  -11.2976 C   0  0  0  0  0  0  0  0  0  0  0  0
    3.4359   13.2330  -10.6505 C   0  0  0  0  0  0  0  0  0  0  0  0
    2.2711   12.6451  -10.2557 C   0  0  0  0  0  0  0  0  0  0  0  0
    1.0813   13.2605  -10.5158 C   0  0  0  0  0  0  0  0  0  0  0  0
   -0.1438   12.6359  -10.0992 C   0  0  0  0  0  0  0  0  0  0  0  0
   -0.7977   11.6742  -10.8096 N   0  0  0  0  0  0  0  0  0  0  0  0
   -0.3776   11.0488  -12.0690 C   0  0  0  0  0  0  0  0  0  0  0  0
    0.2146    9.6589  -11.7886 C   0  0  0  0  0  0  0  0  0  0  0  0
   -0.8881   12.9620   -8.9660 C   0  0  0  0  0  0  0  0  0  0  0  0
   -0.6373   13.9511   -7.8724 C   0  0  0  0  0  0  0  0  0  0  0  0
    0.1251   13.4023   -6.6282 C   0  0  0  0  0  0  0  0  0  0  0  0
   -0.3893   14.1237   -5.3821 C   0  0  0  0  0  0  0  0  0  0  0  0
    1.6330   13.6900   -6.7736 C   0  0  0  0  0  0  0  0  0  0  0  0
    0.0227   11.9659   -6.4356 C   0  0  0  0  0  0  0  0  0  0  0  0
   -0.6633   11.4450   -5.2522 O   0  0  0  0  0  0  0  0  0  0  0  0
   -0.9861   10.0805   -5.1023 C   0  0  0  0  0  0  0  0  0  0  0  0
   -1.6980    9.7654   -3.8209 C   0  0  0  0  0  0  0  0  0  0  0  0
   -2.4013    8.5046   -3.9994 N   0  0  0  0  0  0  0  0  0  0  0  0
   -3.0819    8.0762   -2.8773 N   0  0  0  0  0  0  0  0  0  0  0  0
   -4.4488    7.9957   -2.8693 C   0  0  0  0  0  0  0  0  0  0  0  0
   -5.1624    8.3198   -4.1470 C   0  0  0  0  0  0  0  0  0  0  0  0
   -6.3608    7.5348   -4.3442 N   0  0  0  0  0  0  0  0  0  0  0  0
   -6.4741    6.5737   -5.2787 C   0  0  0  0  0  0  0  0  0  0  0  0
   -7.8517    6.0199   -5.4179 C   0  0  0  0  0  0  0  0  0  0  0  0
   -7.9476    4.5024   -5.0759 C   0  0  0  0  0  0  0  0  0  0  0  0
   -9.3654    4.0066   -5.3239 C   0  0  0  0  0  0  0  0  0  0  0  0
   -7.5784    4.2812   -3.5978 C   0  0  0  0  0  0  0  0  0  0  0  0
   -8.3317    6.2901   -6.7564 N   0  0  0  0  0  0  0  0  0  0  0  0
   -9.2475    7.2803   -6.9165 C   0  0  0  0  0  0  0  0  0  0  0  0
   -9.9363    7.4556   -8.2479 C   0  0  0  0  0  0  0  0  0  0  0  0
  -10.8763    8.6586   -8.2674 C   0  0  0  0  0  0  0  0  0  0  0  0
  -11.5863    8.6940   -9.5715 C   0  0  0  0  0  0  0  0  0  0  0  0
  -12.2630    7.4080   -9.7926 N   0  0  0  0  0  0  0  0  0  0  0  0
  -13.5870    7.2647   -9.9522 C   0  0  0  0  0  0  0  0  0  0  0  0
  -14.4031    8.4026   -9.8810 C   0  0  0  0  0  0  0  0  0  0  0  0
  -15.1648    9.2653   -9.8653 C   0  0  0  0  0  0  0  0  0  0  0  0
  -16.0273   10.4039   -9.7632 C   0  0  0  0  0  0  0  0  0  0  0  0
  -15.6071   11.2509   -8.6360 N   0  0  0  0  0  0  0  0  0  0  0  0
  -15.5581   10.5359   -7.3503 C   0  0  0  0  0  0  0  0  0  0  0  0
  -14.3790   12.0098   -8.8858 C   0  0  0  0  0  0  0  0  0  0  0  0
  -17.4581    9.9280   -9.5292 C   0  0  0  0  0  0  0  0  0  0  0  0
  -15.9377   11.1987  -11.0755 C   0  0  0  0  0  0  0  0  0  0  0  0
  -14.0822    6.1608  -10.1451 O   0  0  0  0  0  0  0  0  0  0  0  0
  -11.4386    6.2199   -9.7770 C   0  0  0  0  0  0  0  0  0  0  0  0
  -10.7665    6.1907   -8.4540 C   0  0  0  0  0  0  0  0  0  0  0  0
   -9.5503    8.0141   -5.9666 O   0  0  0  0  0  0  0  0  0  0  0  0
   -7.7710    5.4683   -7.8702 C   0  0  0  0  0  0  0  0  0  0  0  0
   -5.5304    6.2257   -5.9766 O   0  0  0  0  0  0  0  0  0  0  0  0
   -5.5740    9.8219   -4.0723 C   0  0  0  0  0  0  0  0  0  0  0  0
   -6.0318   10.3258   -5.4199 C   0  0  0  0  0  0  0  0  0  0  0  0
   -4.8162   10.5418   -6.2884 C   0  0  0  0  0  0  0  0  0  0  0  0
   -5.2072   11.1706   -7.5606 N   0  0  0  0  0  0  0  0  0  0  0  0
   -6.0135   12.4504   -7.2905 C   0  0  0  0  0  0  0  0  0  0  0  0
   -7.2060   12.1275   -6.4701 C   0  0  0  0  0  0  0  0  0  0  0  0
   -6.7723   11.5319   -5.2267 O   0  0  0  0  0  0  0  0  0  0  0  0
   -5.0833    7.7527   -1.8636 O   0  0  0  0  0  0  0  0  0  0  0  0
   -2.2416    7.8488   -1.7049 C   0  0  0  0  0  0  0  0  0  0  0  0
   -1.4608    9.1602   -1.4086 C   0  0  0  0  0  0  0  0  0  0  0  0
   -0.7253    9.6398   -2.6474 C   0  0  0  0  0  0  0  0  0  0  0  0
   -0.7713    9.1330   -5.9024 O   0  0  0  0  0  0  0  0  0  0  0  0
   -1.9915   12.1553   -9.0256 C   0  0  0  0  0  0  0  0  0  0  0  0
   -1.9138   11.3549  -10.1610 C   0  0  0  0  0  0  0  0  0  0  0  0
   -2.9595   10.4323  -10.4242 C   0  0  0  0  0  0  0  0  0  0  0  0
   -4.0298   10.3697   -9.5385 C   0  0  0  0  0  0  0  0  0  0  0  0
   -4.0970   11.2258   -8.4189 C   0  0  0  0  0  0  0  0  0  0  0  0
   -3.0270   12.0988   -8.1731 C   0  0  0  0  0  0  0  0  0  0  0  0
   -8.9902    7.6285   -9.2527 F   0  0  0  0  0  0  0  0  0  0  0  0
  1  2  1  0  0  0  0
  2  3  1  0  0  0  0
  2  5  1  0  0  0  0
  3  4  1  0  0  0  0
  5  6  4  0  0  0  0
  5 10  4  0  0  0  0
  6  7  4  0  0  0  0
  7  8  4  0  0  0  0
  8  9  4  0  0  0  0
  9 10  4  0  0  0  0
 10 11  1  0  0  0  0
 11 12  4  0  0  0  0
 11 15  4  0  0  0  0
 12 13  1  0  0  0  0
 12 68  4  0  0  0  0
 13 14  1  0  0  0  0
 15 16  1  0  0  0  0
 15 67  4  0  0  0  0
 16 17  1  0  0  0  0
 17 18  1  0  0  0  0
 17 19  1  0  0  0  0
 17 20  1  0  0  0  0
 20 21  1  0  0  0  0
 21 22  1  0  0  0  0
 22 23  1  0  0  0  0
 22 66  2  0  0  0  0
 23 24  1  0  0  0  0
 23 65  1  0  0  0  0
 24 25  1  0  0  0  0
 25 26  1  0  0  0  0
 25 63  1  0  0  0  0
 26 27  1  0  0  0  0
 26 62  2  0  0  0  0
 27 28  1  0  0  0  0
 27 55  1  0  0  0  0
 28 29  1  0  0  0  0
 29 30  1  0  0  0  0
 29 54  2  0  0  0  0
 30 31  1  0  0  0  0
 30 34  1  0  0  0  0
 31 32  1  0  0  0  0
 31 33  1  0  0  0  0
 34 35  1  0  0  0  0
 34 53  1  0  0  0  0
 35 36  1  0  0  0  0
 35 52  2  0  0  0  0
 36 37  1  0  0  0  0
 36 51  1  0  0  0  0
 36 73  1  0  0  0  0
 37 38  1  0  0  0  0
 38 39  1  0  0  0  0
 39 40  1  0  0  0  0
 39 50  1  0  0  0  0
 40 41  1  0  0  0  0
 40 49  2  0  0  0  0
 41 42  1  0  0  0  0
 42 43  1  0  0  0  0
 43 44  1  0  0  0  0
 43 47  1  0  0  0  0
 43 48  1  0  0  0  0
 44 45  1  0  0  0  0
 44 46  1  0  0  0  0
 50 51  1  0  0  0  0
 55 56  1  0  0  0  0
 56 57  1  0  0  0  0
 56 61  1  0  0  0  0
 57 58  1  0  0  0  0
 58 59  1  0  0  0  0
 58 71  1  0  0  0  0
 59 60  1  0  0  0  0
 60 61  1  0  0  0  0
 63 64  1  0  0  0  0
 64 65  1  0  0  0  0
 67 68  4  0  0  0  0
 67 72  4  0  0  0  0
 68 69  4  0  0  0  0
 69 70  4  0  0  0  0
 70 71  4  0  0  0  0
 71 72  4  0  0  0  0
M  END
$$$$
