mol_ETKDG0_166
  PyMOL3.1          3D                             0

 73 79  0  0  0  0  0  0  0  0999 V2000
   -0.6797   15.8528  -12.1127 C   0  0  0  0  0  0  0  0  0  0  0  0
   -0.6213   14.3508  -12.1211 C   0  0  0  0  0  0  0  0  0  0  0  0
   -0.8818   13.7686  -13.3628 O   0  0  0  0  0  0  0  0  0  0  0  0
   -2.2493   13.6286  -13.7303 C   0  0  0  0  0  0  0  0  0  0  0  0
    0.6817   13.8413  -11.6459 C   0  0  0  0  0  0  0  0  0  0  0  0
    1.7939   14.4109  -12.0861 N   0  0  0  0  0  0  0  0  0  0  0  0
    2.9946   13.9574  -11.6799 C   0  0  0  0  0  0  0  0  0  0  0  0
    3.0978   12.9014  -10.7818 C   0  0  0  0  0  0  0  0  0  0  0  0
    1.9569   12.3204  -10.3366 C   0  0  0  0  0  0  0  0  0  0  0  0
    0.7530   12.7805  -10.7844 C   0  0  0  0  0  0  0  0  0  0  0  0
   -0.4495   12.1761  -10.3093 C   0  0  0  0  0  0  0  0  0  0  0  0
   -1.1038   11.1668  -10.9394 N   0  0  0  0  0  0  0  0  0  0  0  0
   -0.7084   10.4632  -12.1654 C   0  0  0  0  0  0  0  0  0  0  0  0
   -0.0546    9.1243  -11.8278 C   0  0  0  0  0  0  0  0  0  0  0  0
   -1.1668   12.5793   -9.1927 C   0  0  0  0  0  0  0  0  0  0  0  0
   -0.8854   13.6603   -8.1873 C   0  0  0  0  0  0  0  0  0  0  0  0
   -0.2121   13.2200   -6.8604 C   0  0  0  0  0  0  0  0  0  0  0  0
   -0.9002   13.9515   -5.7160 C   0  0  0  0  0  0  0  0  0  0  0  0
    1.2801   13.6031   -6.8644 C   0  0  0  0  0  0  0  0  0  0  0  0
   -0.2214   11.8169   -6.6024 C   0  0  0  0  0  0  0  0  0  0  0  0
   -0.8209   11.3193   -5.3653 O   0  0  0  0  0  0  0  0  0  0  0  0
   -1.0340    9.9530   -5.1200 C   0  0  0  0  0  0  0  0  0  0  0  0
   -1.7298    9.6775   -3.8353 C   0  0  0  0  0  0  0  0  0  0  0  0
   -2.4408    8.4204   -3.9783 N   0  0  0  0  0  0  0  0  0  0  0  0
   -3.0969    8.0165   -2.8435 N   0  0  0  0  0  0  0  0  0  0  0  0
   -4.4511    7.9228   -2.8177 C   0  0  0  0  0  0  0  0  0  0  0  0
   -5.1734    8.2124   -4.0955 C   0  0  0  0  0  0  0  0  0  0  0  0
   -6.3651    7.4184   -4.2546 N   0  0  0  0  0  0  0  0  0  0  0  0
   -6.4957    6.4800   -5.1889 C   0  0  0  0  0  0  0  0  0  0  0  0
   -7.8869    5.9487   -5.2876 C   0  0  0  0  0  0  0  0  0  0  0  0
   -7.9896    4.4323   -4.9937 C   0  0  0  0  0  0  0  0  0  0  0  0
   -9.4136    3.9501   -5.2176 C   0  0  0  0  0  0  0  0  0  0  0  0
   -7.5952    4.1728   -3.5365 C   0  0  0  0  0  0  0  0  0  0  0  0
   -8.4404    6.3173   -6.5726 N   0  0  0  0  0  0  0  0  0  0  0  0
   -9.2178    7.4290   -6.6156 C   0  0  0  0  0  0  0  0  0  0  0  0
  -10.0735    7.7237   -7.8095 C   0  0  0  0  0  0  0  0  0  0  0  0
  -10.7363    9.0846   -7.6374 C   0  0  0  0  0  0  0  0  0  0  0  0
  -11.8047    9.2853   -8.6477 C   0  0  0  0  0  0  0  0  0  0  0  0
  -12.7123    8.1517   -8.5624 N   0  0  0  0  0  0  0  0  0  0  0  0
  -13.9708    8.2101   -8.0331 C   0  0  0  0  0  0  0  0  0  0  0  0
  -14.4051    9.3688   -7.4014 C   0  0  0  0  0  0  0  0  0  0  0  0
  -14.8804   10.2431   -6.8587 C   0  0  0  0  0  0  0  0  0  0  0  0
  -15.3364   11.3793   -6.1053 C   0  0  0  0  0  0  0  0  0  0  0  0
  -15.7688   10.9184   -4.8040 N   0  0  0  0  0  0  0  0  0  0  0  0
  -14.9655   10.0603   -4.1551 C   0  0  0  0  0  0  0  0  0  0  0  0
  -16.6356   11.7170   -4.0189 C   0  0  0  0  0  0  0  0  0  0  0  0
  -14.1933   12.4028   -5.9262 C   0  0  0  0  0  0  0  0  0  0  0  0
  -16.4872   11.9961   -6.8641 C   0  0  0  0  0  0  0  0  0  0  0  0
  -14.7062    7.2417   -8.0701 O   0  0  0  0  0  0  0  0  0  0  0  0
  -12.1554    6.8680   -8.8861 C   0  0  0  0  0  0  0  0  0  0  0  0
  -11.1246    6.6181   -7.8234 C   0  0  0  0  0  0  0  0  0  0  0  0
   -9.2960    8.1753   -5.6239 O   0  0  0  0  0  0  0  0  0  0  0  0
   -8.0967    5.4772   -7.7439 C   0  0  0  0  0  0  0  0  0  0  0  0
   -5.5907    6.1198   -5.9220 O   0  0  0  0  0  0  0  0  0  0  0  0
   -5.5970    9.7089   -4.0477 C   0  0  0  0  0  0  0  0  0  0  0  0
   -6.1196   10.1491   -5.3896 C   0  0  0  0  0  0  0  0  0  0  0  0
   -4.9461   10.3553   -6.2946 C   0  0  0  0  0  0  0  0  0  0  0  0
   -5.4046   10.8630   -7.5904 N   0  0  0  0  0  0  0  0  0  0  0  0
   -6.2471   12.1262   -7.3814 C   0  0  0  0  0  0  0  0  0  0  0  0
   -7.3953   11.8273   -6.4811 C   0  0  0  0  0  0  0  0  0  0  0  0
   -6.8904   11.3356   -5.2330 O   0  0  0  0  0  0  0  0  0  0  0  0
   -5.0777    7.6954   -1.8104 O   0  0  0  0  0  0  0  0  0  0  0  0
   -2.2455    7.8201   -1.6705 C   0  0  0  0  0  0  0  0  0  0  0  0
   -1.4855    9.1237   -1.4117 C   0  0  0  0  0  0  0  0  0  0  0  0
   -0.7511    9.5765   -2.6609 C   0  0  0  0  0  0  0  0  0  0  0  0
   -0.7349    8.9714   -5.8442 O   0  0  0  0  0  0  0  0  0  0  0  0
   -2.2618   11.7626   -9.1795 C   0  0  0  0  0  0  0  0  0  0  0  0
   -2.2028   10.8894  -10.2557 C   0  0  0  0  0  0  0  0  0  0  0  0
   -3.2407    9.9483  -10.4465 C   0  0  0  0  0  0  0  0  0  0  0  0
   -4.2871    9.9412   -9.5327 C   0  0  0  0  0  0  0  0  0  0  0  0
   -4.3298   10.8671   -8.4778 C   0  0  0  0  0  0  0  0  0  0  0  0
   -3.2760   11.7588   -8.3090 C   0  0  0  0  0  0  0  0  0  0  0  0
   -9.3346    7.7388   -8.9863 F   0  0  0  0  0  0  0  0  0  0  0  0
  1  2  1  0  0  0  0
  2  3  1  0  0  0  0
  2  5  1  0  0  0  0
  3  4  1  0  0  0  0
  5  6  4  0  0  0  0
  5 10  4  0  0  0  0
  6  7  4  0  0  0  0
  7  8  4  0  0  0  0
  8  9  4  0  0  0  0
  9 10  4  0  0  0  0
 10 11  1  0  0  0  0
 11 12  4  0  0  0  0
 11 15  4  0  0  0  0
 12 13  1  0  0  0  0
 12 68  4  0  0  0  0
 13 14  1  0  0  0  0
 15 16  1  0  0  0  0
 15 67  4  0  0  0  0
 16 17  1  0  0  0  0
 17 18  1  0  0  0  0
 17 19  1  0  0  0  0
 17 20  1  0  0  0  0
 20 21  1  0  0  0  0
 21 22  1  0  0  0  0
 22 23  1  0  0  0  0
 22 66  2  0  0  0  0
 23 24  1  0  0  0  0
 23 65  1  0  0  0  0
 24 25  1  0  0  0  0
 25 26  1  0  0  0  0
 25 63  1  0  0  0  0
 26 27  1  0  0  0  0
 26 62  2  0  0  0  0
 27 28  1  0  0  0  0
 27 55  1  0  0  0  0
 28 29  1  0  0  0  0
 29 30  1  0  0  0  0
 29 54  2  0  0  0  0
 30 31  1  0  0  0  0
 30 34  1  0  0  0  0
 31 32  1  0  0  0  0
 31 33  1  0  0  0  0
 34 35  1  0  0  0  0
 34 53  1  0  0  0  0
 35 36  1  0  0  0  0
 35 52  2  0  0  0  0
 36 37  1  0  0  0  0
 36 51  1  0  0  0  0
 36 73  1  0  0  0  0
 37 38  1  0  0  0  0
 38 39  1  0  0  0  0
 39 40  1  0  0  0  0
 39 50  1  0  0  0  0
 40 41  1  0  0  0  0
 40 49  2  0  0  0  0
 41 42  1  0  0  0  0
 42 43  1  0  0  0  0
 43 44  1  0  0  0  0
 43 47  1  0  0  0  0
 43 48  1  0  0  0  0
 44 45  1  0  0  0  0
 44 46  1  0  0  0  0
 50 51  1  0  0  0  0
 55 56  1  0  0  0  0
 56 57  1  0  0  0  0
 56 61  1  0  0  0  0
 57 58  1  0  0  0  0
 58 59  1  0  0  0  0
 58 71  1  0  0  0  0
 59 60  1  0  0  0  0
 60 61  1  0  0  0  0
 63 64  1  0  0  0  0
 64 65  1  0  0  0  0
 67 68  4  0  0  0  0
 67 72  4  0  0  0  0
 68 69  4  0  0  0  0
 69 70  4  0  0  0  0
 70 71  4  0  0  0  0
 71 72  4  0  0  0  0
M  END
$$$$
