mol_ETKDG5_126
  PyMOL3.1          3D                             0

 73 79  0  0  0  0  0  0  0  0999 V2000
    0.1008   16.3895  -11.7715 C   0  0  0  0  0  0  0  0  0  0  0  0
    0.0495   14.8982  -11.5378 C   0  0  0  0  0  0  0  0  0  0  0  0
   -0.2658   14.1806  -12.7068 O   0  0  0  0  0  0  0  0  0  0  0  0
   -1.6324   14.1338  -13.0855 C   0  0  0  0  0  0  0  0  0  0  0  0
    1.3280   14.3574  -11.0306 C   0  0  0  0  0  0  0  0  0  0  0  0
    2.4571   14.9815  -11.3446 N   0  0  0  0  0  0  0  0  0  0  0  0
    3.6371   14.5008  -10.9202 C   0  0  0  0  0  0  0  0  0  0  0  0
    3.7081   13.3577  -10.1281 C   0  0  0  0  0  0  0  0  0  0  0  0
    2.5499   12.7202   -9.8070 C   0  0  0  0  0  0  0  0  0  0  0  0
    1.3641   13.2106  -10.2714 C   0  0  0  0  0  0  0  0  0  0  0  0
    0.1313   12.5357   -9.9259 C   0  0  0  0  0  0  0  0  0  0  0  0
   -0.4111   11.5131  -10.6398 N   0  0  0  0  0  0  0  0  0  0  0  0
    0.1522   10.8520  -11.8142 C   0  0  0  0  0  0  0  0  0  0  0  0
    0.8017    9.5266  -11.3834 C   0  0  0  0  0  0  0  0  0  0  0  0
   -0.7157   12.8707   -8.8800 C   0  0  0  0  0  0  0  0  0  0  0  0
   -0.5849   13.9000   -7.8227 C   0  0  0  0  0  0  0  0  0  0  0  0
    0.0803   13.4067   -6.4963 C   0  0  0  0  0  0  0  0  0  0  0  0
   -0.6168   14.0936   -5.3239 C   0  0  0  0  0  0  0  0  0  0  0  0
    1.5727   13.8168   -6.4768 C   0  0  0  0  0  0  0  0  0  0  0  0
    0.0774   11.9819   -6.3034 C   0  0  0  0  0  0  0  0  0  0  0  0
   -0.6305   11.4270   -5.1621 O   0  0  0  0  0  0  0  0  0  0  0  0
   -0.9549   10.0582   -5.0639 C   0  0  0  0  0  0  0  0  0  0  0  0
   -1.6949    9.7212   -3.8145 C   0  0  0  0  0  0  0  0  0  0  0  0
   -2.3876    8.4554   -4.0182 N   0  0  0  0  0  0  0  0  0  0  0  0
   -3.0764    8.0225   -2.9044 N   0  0  0  0  0  0  0  0  0  0  0  0
   -4.4387    7.9315   -2.9117 C   0  0  0  0  0  0  0  0  0  0  0  0
   -5.1365    8.2012   -4.2174 C   0  0  0  0  0  0  0  0  0  0  0  0
   -6.3221    7.3932   -4.3893 N   0  0  0  0  0  0  0  0  0  0  0  0
   -6.4256    6.4105   -5.3029 C   0  0  0  0  0  0  0  0  0  0  0  0
   -7.7994    5.8253   -5.4151 C   0  0  0  0  0  0  0  0  0  0  0  0
   -7.8756    4.3173   -5.0386 C   0  0  0  0  0  0  0  0  0  0  0  0
   -9.2812    3.7842   -5.2921 C   0  0  0  0  0  0  0  0  0  0  0  0
   -7.5315    4.1406   -3.5512 C   0  0  0  0  0  0  0  0  0  0  0  0
   -8.3145    6.0622   -6.7416 N   0  0  0  0  0  0  0  0  0  0  0  0
   -9.1908    7.0767   -6.9014 C   0  0  0  0  0  0  0  0  0  0  0  0
   -9.9893    7.2008   -8.1691 C   0  0  0  0  0  0  0  0  0  0  0  0
  -10.8028    8.4821   -8.1754 C   0  0  0  0  0  0  0  0  0  0  0  0
  -11.7160    8.4839   -9.3459 C   0  0  0  0  0  0  0  0  0  0  0  0
  -12.5195    7.2632   -9.2892 N   0  0  0  0  0  0  0  0  0  0  0  0
  -13.8389    7.2492   -8.9939 C   0  0  0  0  0  0  0  0  0  0  0  0
  -14.3923    8.4101   -8.4574 C   0  0  0  0  0  0  0  0  0  0  0  0
  -14.8990    9.3269   -8.0046 C   0  0  0  0  0  0  0  0  0  0  0  0
  -15.4257   10.5154   -7.3680 C   0  0  0  0  0  0  0  0  0  0  0  0
  -14.4065   11.1304   -6.4938 N   0  0  0  0  0  0  0  0  0  0  0  0
  -13.8133   10.1928   -5.5311 C   0  0  0  0  0  0  0  0  0  0  0  0
  -13.3774   11.9143   -7.2027 C   0  0  0  0  0  0  0  0  0  0  0  0
  -16.6369   10.1415   -6.5134 C   0  0  0  0  0  0  0  0  0  0  0  0
  -15.8440   11.5023   -8.4560 C   0  0  0  0  0  0  0  0  0  0  0  0
  -14.5116    6.2394   -9.1399 O   0  0  0  0  0  0  0  0  0  0  0  0
  -11.8122    6.0162   -9.3825 C   0  0  0  0  0  0  0  0  0  0  0  0
  -10.9293    5.9871   -8.1740 C   0  0  0  0  0  0  0  0  0  0  0  0
   -9.3953    7.8803   -5.9746 O   0  0  0  0  0  0  0  0  0  0  0  0
   -7.8329    5.1649   -7.8404 C   0  0  0  0  0  0  0  0  0  0  0  0
   -5.4950    6.0566   -6.0194 O   0  0  0  0  0  0  0  0  0  0  0  0
   -5.5715    9.6911   -4.2224 C   0  0  0  0  0  0  0  0  0  0  0  0
   -5.9755   10.1250   -5.6209 C   0  0  0  0  0  0  0  0  0  0  0  0
   -4.7076   10.3777   -6.4024 C   0  0  0  0  0  0  0  0  0  0  0  0
   -5.0386   10.9218   -7.7308 N   0  0  0  0  0  0  0  0  0  0  0  0
   -5.9370   12.1490   -7.5926 C   0  0  0  0  0  0  0  0  0  0  0  0
   -7.1729   11.7902   -6.8290 C   0  0  0  0  0  0  0  0  0  0  0  0
   -6.7920   11.2788   -5.5359 O   0  0  0  0  0  0  0  0  0  0  0  0
   -5.0829    7.7101   -1.9160 O   0  0  0  0  0  0  0  0  0  0  0  0
   -2.2596    7.8082   -1.7137 C   0  0  0  0  0  0  0  0  0  0  0  0
   -1.4971    9.1263   -1.4013 C   0  0  0  0  0  0  0  0  0  0  0  0
   -0.7427    9.5965   -2.6236 C   0  0  0  0  0  0  0  0  0  0  0  0
   -0.7139    9.1356   -5.8809 O   0  0  0  0  0  0  0  0  0  0  0  0
   -1.7758   12.0067   -8.9926 C   0  0  0  0  0  0  0  0  0  0  0  0
   -1.5623   11.1714  -10.0707 C   0  0  0  0  0  0  0  0  0  0  0  0
   -2.5390   10.1831  -10.3798 C   0  0  0  0  0  0  0  0  0  0  0  0
   -3.6669   10.1071   -9.5791 C   0  0  0  0  0  0  0  0  0  0  0  0
   -3.8683   11.0010   -8.5057 C   0  0  0  0  0  0  0  0  0  0  0  0
   -2.8723   11.9382   -8.2212 C   0  0  0  0  0  0  0  0  0  0  0  0
   -9.1506    7.2012   -9.2769 F   0  0  0  0  0  0  0  0  0  0  0  0
  1  2  1  0  0  0  0
  2  3  1  0  0  0  0
  2  5  1  0  0  0  0
  3  4  1  0  0  0  0
  5  6  4  0  0  0  0
  5 10  4  0  0  0  0
  6  7  4  0  0  0  0
  7  8  4  0  0  0  0
  8  9  4  0  0  0  0
  9 10  4  0  0  0  0
 10 11  1  0  0  0  0
 11 12  4  0  0  0  0
 11 15  4  0  0  0  0
 12 13  1  0  0  0  0
 12 68  4  0  0  0  0
 13 14  1  0  0  0  0
 15 16  1  0  0  0  0
 15 67  4  0  0  0  0
 16 17  1  0  0  0  0
 17 18  1  0  0  0  0
 17 19  1  0  0  0  0
 17 20  1  0  0  0  0
 20 21  1  0  0  0  0
 21 22  1  0  0  0  0
 22 23  1  0  0  0  0
 22 66  2  0  0  0  0
 23 24  1  0  0  0  0
 23 65  1  0  0  0  0
 24 25  1  0  0  0  0
 25 26  1  0  0  0  0
 25 63  1  0  0  0  0
 26 27  1  0  0  0  0
 26 62  2  0  0  0  0
 27 28  1  0  0  0  0
 27 55  1  0  0  0  0
 28 29  1  0  0  0  0
 29 30  1  0  0  0  0
 29 54  2  0  0  0  0
 30 31  1  0  0  0  0
 30 34  1  0  0  0  0
 31 32  1  0  0  0  0
 31 33  1  0  0  0  0
 34 35  1  0  0  0  0
 34 53  1  0  0  0  0
 35 36  1  0  0  0  0
 35 52  2  0  0  0  0
 36 37  1  0  0  0  0
 36 51  1  0  0  0  0
 36 73  1  0  0  0  0
 37 38  1  0  0  0  0
 38 39  1  0  0  0  0
 39 40  1  0  0  0  0
 39 50  1  0  0  0  0
 40 41  1  0  0  0  0
 40 49  2  0  0  0  0
 41 42  1  0  0  0  0
 42 43  1  0  0  0  0
 43 44  1  0  0  0  0
 43 47  1  0  0  0  0
 43 48  1  0  0  0  0
 44 45  1  0  0  0  0
 44 46  1  0  0  0  0
 50 51  1  0  0  0  0
 55 56  1  0  0  0  0
 56 57  1  0  0  0  0
 56 61  1  0  0  0  0
 57 58  1  0  0  0  0
 58 59  1  0  0  0  0
 58 71  1  0  0  0  0
 59 60  1  0  0  0  0
 60 61  1  0  0  0  0
 63 64  1  0  0  0  0
 64 65  1  0  0  0  0
 67 68  4  0  0  0  0
 67 72  4  0  0  0  0
 68 69  4  0  0  0  0
 69 70  4  0  0  0  0
 70 71  4  0  0  0  0
 71 72  4  0  0  0  0
M  END
$$$$
