mol_bioactive_14
  PyMOL3.1          3D                             0

 73 79  0  0  0  0  0  0  0  0999 V2000
   -0.0707   16.4923  -10.7544 C   0  0  0  0  0  0  0  0  0  0  0  0
    0.1547   15.2266  -11.6007 C   0  0  0  0  0  0  0  0  0  0  0  0
   -0.9441   14.4423  -11.7228 O   0  0  0  0  0  0  0  0  0  0  0  0
   -2.0655   14.8808  -12.4631 C   0  0  0  0  0  0  0  0  0  0  0  0
    1.2712   14.4109  -11.0615 C   0  0  0  0  0  0  0  0  0  0  0  0
    2.4685   14.9011  -11.3307 N   0  0  0  0  0  0  0  0  0  0  0  0
    3.5717   14.2532  -10.9801 C   0  0  0  0  0  0  0  0  0  0  0  0
    3.5037   13.0431  -10.3113 C   0  0  0  0  0  0  0  0  0  0  0  0
    2.2872   12.5221  -10.0073 C   0  0  0  0  0  0  0  0  0  0  0  0
    1.1565   13.1884  -10.3670 C   0  0  0  0  0  0  0  0  0  0  0  0
   -0.1255   12.6188   -9.9976 C   0  0  0  0  0  0  0  0  0  0  0  0
   -0.7737   11.6598  -10.7194 N   0  0  0  0  0  0  0  0  0  0  0  0
   -0.3390   11.0148  -11.9652 C   0  0  0  0  0  0  0  0  0  0  0  0
    0.1708    9.5950  -11.6845 C   0  0  0  0  0  0  0  0  0  0  0  0
   -0.9006   12.9623   -8.8975 C   0  0  0  0  0  0  0  0  0  0  0  0
   -0.6666   13.9582   -7.8181 C   0  0  0  0  0  0  0  0  0  0  0  0
    0.0825   13.4350   -6.5573 C   0  0  0  0  0  0  0  0  0  0  0  0
   -0.4878   14.1495   -5.3245 C   0  0  0  0  0  0  0  0  0  0  0  0
    1.5886   13.7692   -6.6606 C   0  0  0  0  0  0  0  0  0  0  0  0
    0.0133   12.0151   -6.3753 C   0  0  0  0  0  0  0  0  0  0  0  0
   -0.6684   11.4678   -5.2084 O   0  0  0  0  0  0  0  0  0  0  0  0
   -0.9601   10.0987   -5.0668 C   0  0  0  0  0  0  0  0  0  0  0  0
   -1.6932    9.7764   -3.8055 C   0  0  0  0  0  0  0  0  0  0  0  0
   -2.4245    8.5361   -4.0094 N   0  0  0  0  0  0  0  0  0  0  0  0
   -3.1077    8.0907   -2.9032 N   0  0  0  0  0  0  0  0  0  0  0  0
   -4.4774    8.0256   -2.8981 C   0  0  0  0  0  0  0  0  0  0  0  0
   -5.2013    8.4461   -4.1588 C   0  0  0  0  0  0  0  0  0  0  0  0
   -6.3838    7.6290   -4.4235 N   0  0  0  0  0  0  0  0  0  0  0  0
   -6.4245    6.6030   -5.2845 C   0  0  0  0  0  0  0  0  0  0  0  0
   -7.7821    6.0040   -5.4710 C   0  0  0  0  0  0  0  0  0  0  0  0
   -7.8830    4.4910   -5.0904 C   0  0  0  0  0  0  0  0  0  0  0  0
   -9.3006    3.9828   -5.3511 C   0  0  0  0  0  0  0  0  0  0  0  0
   -7.5267    4.2865   -3.6139 C   0  0  0  0  0  0  0  0  0  0  0  0
   -8.1873    6.2214   -6.8351 N   0  0  0  0  0  0  0  0  0  0  0  0
   -9.1494    7.1529   -7.0879 C   0  0  0  0  0  0  0  0  0  0  0  0
   -9.7131    7.2677   -8.4794 C   0  0  0  0  0  0  0  0  0  0  0  0
  -10.8851    8.2189   -8.6096 C   0  0  0  0  0  0  0  0  0  0  0  0
  -11.4062    8.1663   -9.9999 C   0  0  0  0  0  0  0  0  0  0  0  0
  -11.6348    6.7665  -10.4273 N   0  0  0  0  0  0  0  0  0  0  0  0
  -12.7577    6.2816  -10.9620 C   0  0  0  0  0  0  0  0  0  0  0  0
  -13.8336    7.1322  -11.0860 C   0  0  0  0  0  0  0  0  0  0  0  0
  -14.7788    7.7262  -11.2510 C   0  0  0  0  0  0  0  0  0  0  0  0
  -15.8909    8.6069  -11.3410 C   0  0  0  0  0  0  0  0  0  0  0  0
  -16.8397    8.3150  -10.2535 N   0  0  0  0  0  0  0  0  0  0  0  0
  -16.2345    8.0677   -8.9441 C   0  0  0  0  0  0  0  0  0  0  0  0
  -18.0006    9.1566  -10.1846 C   0  0  0  0  0  0  0  0  0  0  0  0
  -15.4023   10.0774  -11.2399 C   0  0  0  0  0  0  0  0  0  0  0  0
  -16.5420    8.3565  -12.7010 C   0  0  0  0  0  0  0  0  0  0  0  0
  -12.8370    5.1129  -11.3170 O   0  0  0  0  0  0  0  0  0  0  0  0
  -10.5926    5.8277  -10.2406 C   0  0  0  0  0  0  0  0  0  0  0  0
  -10.2329    5.8962   -8.8266 C   0  0  0  0  0  0  0  0  0  0  0  0
   -9.5772    7.8833   -6.1865 O   0  0  0  0  0  0  0  0  0  0  0  0
   -7.4864    5.4153   -7.8738 C   0  0  0  0  0  0  0  0  0  0  0  0
   -5.4384    6.2355   -5.9108 O   0  0  0  0  0  0  0  0  0  0  0  0
   -5.6299    9.9335   -3.9687 C   0  0  0  0  0  0  0  0  0  0  0  0
   -5.7154   10.8167   -5.1876 C   0  0  0  0  0  0  0  0  0  0  0  0
   -5.1262   10.2636   -6.4724 C   0  0  0  0  0  0  0  0  0  0  0  0
   -5.3579   11.1700   -7.6104 N   0  0  0  0  0  0  0  0  0  0  0  0
   -6.0912   12.4530   -7.2708 C   0  0  0  0  0  0  0  0  0  0  0  0
   -7.2572   12.1963   -6.4132 C   0  0  0  0  0  0  0  0  0  0  0  0
   -7.0807   11.1668   -5.4245 O   0  0  0  0  0  0  0  0  0  0  0  0
   -5.1152    7.7441   -1.9069 O   0  0  0  0  0  0  0  0  0  0  0  0
   -2.2743    7.8380   -1.7264 C   0  0  0  0  0  0  0  0  0  0  0  0
   -1.4785    9.1327   -1.4035 C   0  0  0  0  0  0  0  0  0  0  0  0
   -0.7347    9.6192   -2.6219 C   0  0  0  0  0  0  0  0  0  0  0  0
   -0.6934    9.1618   -5.8597 O   0  0  0  0  0  0  0  0  0  0  0  0
   -2.0224   12.1684   -8.9843 C   0  0  0  0  0  0  0  0  0  0  0  0
   -1.9173   11.3629  -10.1046 C   0  0  0  0  0  0  0  0  0  0  0  0
   -2.9665   10.4455  -10.3930 C   0  0  0  0  0  0  0  0  0  0  0  0
   -4.0650   10.3864   -9.5311 C   0  0  0  0  0  0  0  0  0  0  0  0
   -4.1719   11.2465   -8.4202 C   0  0  0  0  0  0  0  0  0  0  0  0
   -3.1007   12.1261   -8.1567 C   0  0  0  0  0  0  0  0  0  0  0  0
   -8.7029    7.6894   -9.3343 F   0  0  0  0  0  0  0  0  0  0  0  0
  1  2  1  0  0  0  0
  2  3  1  0  0  0  0
  2  5  1  0  0  0  0
  3  4  1  0  0  0  0
  5  6  4  0  0  0  0
  5 10  4  0  0  0  0
  6  7  4  0  0  0  0
  7  8  4  0  0  0  0
  8  9  4  0  0  0  0
  9 10  4  0  0  0  0
 10 11  1  0  0  0  0
 11 12  4  0  0  0  0
 11 15  4  0  0  0  0
 12 13  1  0  0  0  0
 12 68  4  0  0  0  0
 13 14  1  0  0  0  0
 15 16  1  0  0  0  0
 15 67  4  0  0  0  0
 16 17  1  0  0  0  0
 17 18  1  0  0  0  0
 17 19  1  0  0  0  0
 17 20  1  0  0  0  0
 20 21  1  0  0  0  0
 21 22  1  0  0  0  0
 22 23  1  0  0  0  0
 22 66  2  0  0  0  0
 23 24  1  0  0  0  0
 23 65  1  0  0  0  0
 24 25  1  0  0  0  0
 25 26  1  0  0  0  0
 25 63  1  0  0  0  0
 26 27  1  0  0  0  0
 26 62  2  0  0  0  0
 27 28  1  0  0  0  0
 27 55  1  0  0  0  0
 28 29  1  0  0  0  0
 29 30  1  0  0  0  0
 29 54  2  0  0  0  0
 30 31  1  0  0  0  0
 30 34  1  0  0  0  0
 31 32  1  0  0  0  0
 31 33  1  0  0  0  0
 34 35  1  0  0  0  0
 34 53  1  0  0  0  0
 35 36  1  0  0  0  0
 35 52  2  0  0  0  0
 36 37  1  0  0  0  0
 36 51  1  0  0  0  0
 36 73  1  0  0  0  0
 37 38  1  0  0  0  0
 38 39  1  0  0  0  0
 39 40  1  0  0  0  0
 39 50  1  0  0  0  0
 40 41  1  0  0  0  0
 40 49  2  0  0  0  0
 41 42  1  0  0  0  0
 42 43  1  0  0  0  0
 43 44  1  0  0  0  0
 43 47  1  0  0  0  0
 43 48  1  0  0  0  0
 44 45  1  0  0  0  0
 44 46  1  0  0  0  0
 50 51  1  0  0  0  0
 55 56  1  0  0  0  0
 56 57  1  0  0  0  0
 56 61  1  0  0  0  0
 57 58  1  0  0  0  0
 58 59  1  0  0  0  0
 58 71  1  0  0  0  0
 59 60  1  0  0  0  0
 60 61  1  0  0  0  0
 63 64  1  0  0  0  0
 64 65  1  0  0  0  0
 67 68  4  0  0  0  0
 67 72  4  0  0  0  0
 68 69  4  0  0  0  0
 69 70  4  0  0  0  0
 70 71  4  0  0  0  0
 71 72  4  0  0  0  0
M  END
$$$$
