mol_ETKDG4_116
  PyMOL3.1          3D                             0

 73 79  0  0  0  0  0  0  0  0999 V2000
   -0.1668   15.4047  -13.4467 C   0  0  0  0  0  0  0  0  0  0  0  0
   -0.3106   14.8038  -12.0573 C   0  0  0  0  0  0  0  0  0  0  0  0
   -0.9260   15.6921  -11.1732 O   0  0  0  0  0  0  0  0  0  0  0  0
   -2.3516   15.6635  -11.0885 C   0  0  0  0  0  0  0  0  0  0  0  0
    0.9976   14.4289  -11.4623 C   0  0  0  0  0  0  0  0  0  0  0  0
    2.0811   15.0959  -11.8380 N   0  0  0  0  0  0  0  0  0  0  0  0
    3.2941   14.7675  -11.3362 C   0  0  0  0  0  0  0  0  0  0  0  0
    3.4373   13.7206  -10.4370 C   0  0  0  0  0  0  0  0  0  0  0  0
    2.3179   13.0277  -10.0570 C   0  0  0  0  0  0  0  0  0  0  0  0
    1.0970   13.3876  -10.5524 C   0  0  0  0  0  0  0  0  0  0  0  0
   -0.0891   12.6950  -10.1093 C   0  0  0  0  0  0  0  0  0  0  0  0
   -0.6795   11.6747  -10.7921 N   0  0  0  0  0  0  0  0  0  0  0  0
   -0.1966   11.0228  -12.0263 C   0  0  0  0  0  0  0  0  0  0  0  0
    0.4510    9.6693  -11.6827 C   0  0  0  0  0  0  0  0  0  0  0  0
   -0.8647   13.0072   -8.9819 C   0  0  0  0  0  0  0  0  0  0  0  0
   -0.6699   14.0144   -7.8872 C   0  0  0  0  0  0  0  0  0  0  0  0
    0.0519   13.4850   -6.6008 C   0  0  0  0  0  0  0  0  0  0  0  0
   -0.5550   14.1820   -5.3791 C   0  0  0  0  0  0  0  0  0  0  0  0
    1.5559   13.8310   -6.6616 C   0  0  0  0  0  0  0  0  0  0  0  0
   -0.0021   12.0340   -6.4104 C   0  0  0  0  0  0  0  0  0  0  0  0
   -0.6786   11.4899   -5.2393 O   0  0  0  0  0  0  0  0  0  0  0  0
   -0.9624   10.1106   -5.0912 C   0  0  0  0  0  0  0  0  0  0  0  0
   -1.6838    9.7747   -3.8186 C   0  0  0  0  0  0  0  0  0  0  0  0
   -2.3678    8.4996   -4.0035 N   0  0  0  0  0  0  0  0  0  0  0  0
   -3.0436    8.0565   -2.8801 N   0  0  0  0  0  0  0  0  0  0  0  0
   -4.4079    7.9481   -2.8800 C   0  0  0  0  0  0  0  0  0  0  0  0
   -5.1223    8.2333   -4.1703 C   0  0  0  0  0  0  0  0  0  0  0  0
   -6.3201    7.4461   -4.3510 N   0  0  0  0  0  0  0  0  0  0  0  0
   -6.4621    6.4886   -5.2923 C   0  0  0  0  0  0  0  0  0  0  0  0
   -7.8627    5.9732   -5.4234 C   0  0  0  0  0  0  0  0  0  0  0  0
   -8.0193    4.4635   -5.0838 C   0  0  0  0  0  0  0  0  0  0  0  0
   -9.4767    4.0395   -5.2747 C   0  0  0  0  0  0  0  0  0  0  0  0
   -7.5983    4.2053   -3.6292 C   0  0  0  0  0  0  0  0  0  0  0  0
   -8.3439    6.2858   -6.7606 N   0  0  0  0  0  0  0  0  0  0  0  0
   -9.0716    7.4347   -6.9340 C   0  0  0  0  0  0  0  0  0  0  0  0
   -9.7471    7.7307   -8.2598 C   0  0  0  0  0  0  0  0  0  0  0  0
   -9.8932    9.2308   -8.5003 C   0  0  0  0  0  0  0  0  0  0  0  0
  -10.5850    9.4362   -9.7828 C   0  0  0  0  0  0  0  0  0  0  0  0
  -11.8666    8.7100   -9.7957 N   0  0  0  0  0  0  0  0  0  0  0  0
  -13.0322    9.3081  -10.0942 C   0  0  0  0  0  0  0  0  0  0  0  0
  -13.0001   10.6672  -10.4631 C   0  0  0  0  0  0  0  0  0  0  0  0
  -13.0996   11.7569  -10.8024 C   0  0  0  0  0  0  0  0  0  0  0  0
  -13.0585   13.1571  -11.1724 C   0  0  0  0  0  0  0  0  0  0  0  0
  -13.7746   13.9465  -10.1360 N   0  0  0  0  0  0  0  0  0  0  0  0
  -13.1224   13.8860   -8.7995 C   0  0  0  0  0  0  0  0  0  0  0  0
  -15.2142   13.6274  -10.0427 C   0  0  0  0  0  0  0  0  0  0  0  0
  -11.5956   13.6512  -11.2692 C   0  0  0  0  0  0  0  0  0  0  0  0
  -13.7266   13.2928  -12.5427 C   0  0  0  0  0  0  0  0  0  0  0  0
  -14.0787    8.6910  -10.0509 O   0  0  0  0  0  0  0  0  0  0  0  0
  -11.8435    7.2768   -9.4832 C   0  0  0  0  0  0  0  0  0  0  0  0
  -11.1167    7.0650   -8.1997 C   0  0  0  0  0  0  0  0  0  0  0  0
   -9.2351    8.2260   -5.9883 O   0  0  0  0  0  0  0  0  0  0  0  0
   -7.9756    5.3454   -7.8532 C   0  0  0  0  0  0  0  0  0  0  0  0
   -5.5369    6.1265   -6.0139 O   0  0  0  0  0  0  0  0  0  0  0  0
   -5.5405    9.7387   -4.1186 C   0  0  0  0  0  0  0  0  0  0  0  0
   -5.9864   10.2261   -5.4753 C   0  0  0  0  0  0  0  0  0  0  0  0
   -4.7545   10.4766   -6.3159 C   0  0  0  0  0  0  0  0  0  0  0  0
   -5.1295   11.0671   -7.6120 N   0  0  0  0  0  0  0  0  0  0  0  0
   -5.9885   12.3268   -7.3740 C   0  0  0  0  0  0  0  0  0  0  0  0
   -7.1964   11.9702   -6.5728 C   0  0  0  0  0  0  0  0  0  0  0  0
   -6.7612   11.4108   -5.3099 O   0  0  0  0  0  0  0  0  0  0  0  0
   -5.0435    7.7065   -1.8698 O   0  0  0  0  0  0  0  0  0  0  0  0
   -2.2088    7.8499   -1.7001 C   0  0  0  0  0  0  0  0  0  0  0  0
   -1.4590    9.1820   -1.3969 C   0  0  0  0  0  0  0  0  0  0  0  0
   -0.7185    9.6694   -2.6342 C   0  0  0  0  0  0  0  0  0  0  0  0
   -0.6953    9.1779   -5.8882 O   0  0  0  0  0  0  0  0  0  0  0  0
   -1.9267   12.1462   -9.0392 C   0  0  0  0  0  0  0  0  0  0  0  0
   -1.7894   11.3167  -10.1531 C   0  0  0  0  0  0  0  0  0  0  0  0
   -2.7866   10.3356  -10.4104 C   0  0  0  0  0  0  0  0  0  0  0  0
   -3.8707   10.2470   -9.5413 C   0  0  0  0  0  0  0  0  0  0  0  0
   -4.0001   11.1398   -8.4473 C   0  0  0  0  0  0  0  0  0  0  0  0
   -2.9762   12.0652   -8.2047 C   0  0  0  0  0  0  0  0  0  0  0  0
   -9.0226    7.2477   -9.3298 F   0  0  0  0  0  0  0  0  0  0  0  0
  1  2  1  0  0  0  0
  2  3  1  0  0  0  0
  2  5  1  0  0  0  0
  3  4  1  0  0  0  0
  5  6  4  0  0  0  0
  5 10  4  0  0  0  0
  6  7  4  0  0  0  0
  7  8  4  0  0  0  0
  8  9  4  0  0  0  0
  9 10  4  0  0  0  0
 10 11  1  0  0  0  0
 11 12  4  0  0  0  0
 11 15  4  0  0  0  0
 12 13  1  0  0  0  0
 12 68  4  0  0  0  0
 13 14  1  0  0  0  0
 15 16  1  0  0  0  0
 15 67  4  0  0  0  0
 16 17  1  0  0  0  0
 17 18  1  0  0  0  0
 17 19  1  0  0  0  0
 17 20  1  0  0  0  0
 20 21  1  0  0  0  0
 21 22  1  0  0  0  0
 22 23  1  0  0  0  0
 22 66  2  0  0  0  0
 23 24  1  0  0  0  0
 23 65  1  0  0  0  0
 24 25  1  0  0  0  0
 25 26  1  0  0  0  0
 25 63  1  0  0  0  0
 26 27  1  0  0  0  0
 26 62  2  0  0  0  0
 27 28  1  0  0  0  0
 27 55  1  0  0  0  0
 28 29  1  0  0  0  0
 29 30  1  0  0  0  0
 29 54  2  0  0  0  0
 30 31  1  0  0  0  0
 30 34  1  0  0  0  0
 31 32  1  0  0  0  0
 31 33  1  0  0  0  0
 34 35  1  0  0  0  0
 34 53  1  0  0  0  0
 35 36  1  0  0  0  0
 35 52  2  0  0  0  0
 36 37  1  0  0  0  0
 36 51  1  0  0  0  0
 36 73  1  0  0  0  0
 37 38  1  0  0  0  0
 38 39  1  0  0  0  0
 39 40  1  0  0  0  0
 39 50  1  0  0  0  0
 40 41  1  0  0  0  0
 40 49  2  0  0  0  0
 41 42  1  0  0  0  0
 42 43  1  0  0  0  0
 43 44  1  0  0  0  0
 43 47  1  0  0  0  0
 43 48  1  0  0  0  0
 44 45  1  0  0  0  0
 44 46  1  0  0  0  0
 50 51  1  0  0  0  0
 55 56  1  0  0  0  0
 56 57  1  0  0  0  0
 56 61  1  0  0  0  0
 57 58  1  0  0  0  0
 58 59  1  0  0  0  0
 58 71  1  0  0  0  0
 59 60  1  0  0  0  0
 60 61  1  0  0  0  0
 63 64  1  0  0  0  0
 64 65  1  0  0  0  0
 67 68  4  0  0  0  0
 67 72  4  0  0  0  0
 68 69  4  0  0  0  0
 69 70  4  0  0  0  0
 70 71  4  0  0  0  0
 71 72  4  0  0  0  0
M  END
$$$$
