mol_ETKDG2_62
  PyMOL3.1          3D                             0

 73 79  0  0  0  0  0  0  0  0999 V2000
   -0.2426   16.4155  -11.8038 C   0  0  0  0  0  0  0  0  0  0  0  0
   -0.3164   14.9126  -11.6975 C   0  0  0  0  0  0  0  0  0  0  0  0
   -0.7882   14.3079  -12.8816 O   0  0  0  0  0  0  0  0  0  0  0  0
   -2.2023   14.2508  -13.0646 C   0  0  0  0  0  0  0  0  0  0  0  0
    0.9924   14.3015  -11.3670 C   0  0  0  0  0  0  0  0  0  0  0  0
    2.1091   14.8792  -11.7980 N   0  0  0  0  0  0  0  0  0  0  0  0
    3.3109   14.3479  -11.5265 C   0  0  0  0  0  0  0  0  0  0  0  0
    3.4218   13.1783  -10.7691 C   0  0  0  0  0  0  0  0  0  0  0  0
    2.2869   12.5797  -10.3251 C   0  0  0  0  0  0  0  0  0  0  0  0
    1.0732   13.1242  -10.6444 C   0  0  0  0  0  0  0  0  0  0  0  0
   -0.1344   12.4971  -10.1809 C   0  0  0  0  0  0  0  0  0  0  0  0
   -0.8016   11.5202  -10.8597 N   0  0  0  0  0  0  0  0  0  0  0  0
   -0.4058   10.8477  -12.1078 C   0  0  0  0  0  0  0  0  0  0  0  0
    0.2154    9.4818  -11.7940 C   0  0  0  0  0  0  0  0  0  0  0  0
   -0.8515   12.8591   -9.0385 C   0  0  0  0  0  0  0  0  0  0  0  0
   -0.5571   13.8704   -7.9740 C   0  0  0  0  0  0  0  0  0  0  0  0
    0.1783   13.3356   -6.7038 C   0  0  0  0  0  0  0  0  0  0  0  0
   -0.3716   14.0761   -5.4828 C   0  0  0  0  0  0  0  0  0  0  0  0
    1.6917   13.6406   -6.8091 C   0  0  0  0  0  0  0  0  0  0  0  0
    0.0990   11.9105   -6.4807 C   0  0  0  0  0  0  0  0  0  0  0  0
   -0.6012   11.4037   -5.2894 O   0  0  0  0  0  0  0  0  0  0  0  0
   -0.9165   10.0379   -5.1174 C   0  0  0  0  0  0  0  0  0  0  0  0
   -1.6441    9.7384   -3.8457 C   0  0  0  0  0  0  0  0  0  0  0  0
   -2.3588    8.4780   -4.0286 N   0  0  0  0  0  0  0  0  0  0  0  0
   -3.0418    8.0489   -2.9114 N   0  0  0  0  0  0  0  0  0  0  0  0
   -4.4075    7.9590   -2.9033 C   0  0  0  0  0  0  0  0  0  0  0  0
   -5.1294    8.3001   -4.1854 C   0  0  0  0  0  0  0  0  0  0  0  0
   -6.3275    7.5007   -4.3836 N   0  0  0  0  0  0  0  0  0  0  0  0
   -6.4548    6.5526   -5.3225 C   0  0  0  0  0  0  0  0  0  0  0  0
   -7.8389    5.9938   -5.4543 C   0  0  0  0  0  0  0  0  0  0  0  0
   -7.9306    4.4773   -5.1091 C   0  0  0  0  0  0  0  0  0  0  0  0
   -9.3579    3.9798   -5.3117 C   0  0  0  0  0  0  0  0  0  0  0  0
   -7.5223    4.2544   -3.6395 C   0  0  0  0  0  0  0  0  0  0  0  0
   -8.3552    6.2675   -6.7814 N   0  0  0  0  0  0  0  0  0  0  0  0
   -9.2172    7.3249   -6.9318 C   0  0  0  0  0  0  0  0  0  0  0  0
  -10.0149    7.4723   -8.2154 C   0  0  0  0  0  0  0  0  0  0  0  0
  -10.6516    8.8481   -8.3821 C   0  0  0  0  0  0  0  0  0  0  0  0
  -11.4910    8.8457   -9.6172 C   0  0  0  0  0  0  0  0  0  0  0  0
  -12.4639    7.7366   -9.5661 N   0  0  0  0  0  0  0  0  0  0  0  0
  -13.8081    7.8672   -9.7128 C   0  0  0  0  0  0  0  0  0  0  0  0
  -14.3566    9.0831  -10.1034 C   0  0  0  0  0  0  0  0  0  0  0  0
  -14.9877    9.9911  -10.4606 C   0  0  0  0  0  0  0  0  0  0  0  0
  -15.6631   11.1659  -10.8477 C   0  0  0  0  0  0  0  0  0  0  0  0
  -16.1966   11.8531   -9.6743 N   0  0  0  0  0  0  0  0  0  0  0  0
  -16.5863   11.0661   -8.5338 C   0  0  0  0  0  0  0  0  0  0  0  0
  -16.8514   13.1099   -9.8460 C   0  0  0  0  0  0  0  0  0  0  0  0
  -14.6712   12.1075  -11.5607 C   0  0  0  0  0  0  0  0  0  0  0  0
  -16.7986   10.7657  -11.7887 C   0  0  0  0  0  0  0  0  0  0  0  0
  -14.5452    6.9211   -9.5217 O   0  0  0  0  0  0  0  0  0  0  0  0
  -11.9447    6.4067   -9.3398 C   0  0  0  0  0  0  0  0  0  0  0  0
  -11.1240    6.4276   -8.1091 C   0  0  0  0  0  0  0  0  0  0  0  0
   -9.4118    8.1180   -5.9980 O   0  0  0  0  0  0  0  0  0  0  0  0
   -7.9079    5.3748   -7.8828 C   0  0  0  0  0  0  0  0  0  0  0  0
   -5.5182    6.2007   -6.0409 O   0  0  0  0  0  0  0  0  0  0  0  0
   -5.5481    9.7899   -4.0816 C   0  0  0  0  0  0  0  0  0  0  0  0
   -5.9977   10.3219   -5.4263 C   0  0  0  0  0  0  0  0  0  0  0  0
   -4.7825   10.5318   -6.2828 C   0  0  0  0  0  0  0  0  0  0  0  0
   -5.1713   11.1552   -7.5539 N   0  0  0  0  0  0  0  0  0  0  0  0
   -5.9592   12.4467   -7.2864 C   0  0  0  0  0  0  0  0  0  0  0  0
   -7.1570   12.1443   -6.4458 C   0  0  0  0  0  0  0  0  0  0  0  0
   -6.7184   11.5392   -5.2204 O   0  0  0  0  0  0  0  0  0  0  0  0
   -5.0428    7.7049   -1.9071 O   0  0  0  0  0  0  0  0  0  0  0  0
   -2.2152    7.8242   -1.7263 C   0  0  0  0  0  0  0  0  0  0  0  0
   -1.4412    9.1396   -1.4196 C   0  0  0  0  0  0  0  0  0  0  0  0
   -0.6843    9.6035   -2.6561 C   0  0  0  0  0  0  0  0  0  0  0  0
   -0.6768    9.0839   -5.8981 O   0  0  0  0  0  0  0  0  0  0  0  0
   -1.9659   12.0570   -9.0656 C   0  0  0  0  0  0  0  0  0  0  0  0
   -1.9104   11.2283  -10.1859 C   0  0  0  0  0  0  0  0  0  0  0  0
   -2.9704   10.3070  -10.4215 C   0  0  0  0  0  0  0  0  0  0  0  0
   -4.0255   10.2803   -9.5232 C   0  0  0  0  0  0  0  0  0  0  0  0
   -4.0729   11.1720   -8.4144 C   0  0  0  0  0  0  0  0  0  0  0  0
   -2.9917   12.0296   -8.2017 C   0  0  0  0  0  0  0  0  0  0  0  0
   -9.2180    7.2709   -9.3218 F   0  0  0  0  0  0  0  0  0  0  0  0
  1  2  1  0  0  0  0
  2  3  1  0  0  0  0
  2  5  1  0  0  0  0
  3  4  1  0  0  0  0
  5  6  4  0  0  0  0
  5 10  4  0  0  0  0
  6  7  4  0  0  0  0
  7  8  4  0  0  0  0
  8  9  4  0  0  0  0
  9 10  4  0  0  0  0
 10 11  1  0  0  0  0
 11 12  4  0  0  0  0
 11 15  4  0  0  0  0
 12 13  1  0  0  0  0
 12 68  4  0  0  0  0
 13 14  1  0  0  0  0
 15 16  1  0  0  0  0
 15 67  4  0  0  0  0
 16 17  1  0  0  0  0
 17 18  1  0  0  0  0
 17 19  1  0  0  0  0
 17 20  1  0  0  0  0
 20 21  1  0  0  0  0
 21 22  1  0  0  0  0
 22 23  1  0  0  0  0
 22 66  2  0  0  0  0
 23 24  1  0  0  0  0
 23 65  1  0  0  0  0
 24 25  1  0  0  0  0
 25 26  1  0  0  0  0
 25 63  1  0  0  0  0
 26 27  1  0  0  0  0
 26 62  2  0  0  0  0
 27 28  1  0  0  0  0
 27 55  1  0  0  0  0
 28 29  1  0  0  0  0
 29 30  1  0  0  0  0
 29 54  2  0  0  0  0
 30 31  1  0  0  0  0
 30 34  1  0  0  0  0
 31 32  1  0  0  0  0
 31 33  1  0  0  0  0
 34 35  1  0  0  0  0
 34 53  1  0  0  0  0
 35 36  1  0  0  0  0
 35 52  2  0  0  0  0
 36 37  1  0  0  0  0
 36 51  1  0  0  0  0
 36 73  1  0  0  0  0
 37 38  1  0  0  0  0
 38 39  1  0  0  0  0
 39 40  1  0  0  0  0
 39 50  1  0  0  0  0
 40 41  1  0  0  0  0
 40 49  2  0  0  0  0
 41 42  1  0  0  0  0
 42 43  1  0  0  0  0
 43 44  1  0  0  0  0
 43 47  1  0  0  0  0
 43 48  1  0  0  0  0
 44 45  1  0  0  0  0
 44 46  1  0  0  0  0
 50 51  1  0  0  0  0
 55 56  1  0  0  0  0
 56 57  1  0  0  0  0
 56 61  1  0  0  0  0
 57 58  1  0  0  0  0
 58 59  1  0  0  0  0
 58 71  1  0  0  0  0
 59 60  1  0  0  0  0
 60 61  1  0  0  0  0
 63 64  1  0  0  0  0
 64 65  1  0  0  0  0
 67 68  4  0  0  0  0
 67 72  4  0  0  0  0
 68 69  4  0  0  0  0
 69 70  4  0  0  0  0
 70 71  4  0  0  0  0
 71 72  4  0  0  0  0
M  END
$$$$
