mol_bioactive_12
  PyMOL3.1          3D                             0

 73 79  0  0  0  0  0  0  0  0999 V2000
   -0.4667   16.2592  -11.1371 C   0  0  0  0  0  0  0  0  0  0  0  0
   -0.1639   14.9882  -11.9366 C   0  0  0  0  0  0  0  0  0  0  0  0
   -1.2106   14.1300  -12.0513 O   0  0  0  0  0  0  0  0  0  0  0  0
   -2.3877   14.5125  -12.7156 C   0  0  0  0  0  0  0  0  0  0  0  0
    0.9842   14.2516  -11.3715 C   0  0  0  0  0  0  0  0  0  0  0  0
    2.1337   14.7499  -11.7600 N   0  0  0  0  0  0  0  0  0  0  0  0
    3.2735   14.1853  -11.4153 C   0  0  0  0  0  0  0  0  0  0  0  0
    3.2942   13.0553  -10.6311 C   0  0  0  0  0  0  0  0  0  0  0  0
    2.1286   12.5237  -10.2045 C   0  0  0  0  0  0  0  0  0  0  0  0
    0.9599   13.1022  -10.5589 C   0  0  0  0  0  0  0  0  0  0  0  0
   -0.2697   12.5200  -10.0709 C   0  0  0  0  0  0  0  0  0  0  0  0
   -0.9315   11.5167  -10.7066 N   0  0  0  0  0  0  0  0  0  0  0  0
   -0.5417   10.8134  -11.9379 C   0  0  0  0  0  0  0  0  0  0  0  0
    0.1151    9.4736  -11.6038 C   0  0  0  0  0  0  0  0  0  0  0  0
   -0.9789   12.8891   -8.9443 C   0  0  0  0  0  0  0  0  0  0  0  0
   -0.6805   13.8976   -7.9022 C   0  0  0  0  0  0  0  0  0  0  0  0
    0.0534   13.3703   -6.6336 C   0  0  0  0  0  0  0  0  0  0  0  0
   -0.5166   14.0949   -5.4241 C   0  0  0  0  0  0  0  0  0  0  0  0
    1.5559   13.6927   -6.7313 C   0  0  0  0  0  0  0  0  0  0  0  0
   -0.0170   11.9533   -6.4378 C   0  0  0  0  0  0  0  0  0  0  0  0
   -0.6814   11.4187   -5.2482 O   0  0  0  0  0  0  0  0  0  0  0  0
   -0.9425   10.0486   -5.0685 C   0  0  0  0  0  0  0  0  0  0  0  0
   -1.6578    9.7305   -3.7993 C   0  0  0  0  0  0  0  0  0  0  0  0
   -2.3843    8.4928   -3.9968 N   0  0  0  0  0  0  0  0  0  0  0  0
   -3.0513    8.0419   -2.8874 N   0  0  0  0  0  0  0  0  0  0  0  0
   -4.4100    7.9667   -2.8637 C   0  0  0  0  0  0  0  0  0  0  0  0
   -5.1500    8.3992   -4.0950 C   0  0  0  0  0  0  0  0  0  0  0  0
   -6.3316    7.5866   -4.3516 N   0  0  0  0  0  0  0  0  0  0  0  0
   -6.3845    6.5858   -5.2329 C   0  0  0  0  0  0  0  0  0  0  0  0
   -7.7287    5.9732   -5.3880 C   0  0  0  0  0  0  0  0  0  0  0  0
   -7.7810    4.4610   -4.9993 C   0  0  0  0  0  0  0  0  0  0  0  0
   -9.1799    3.9053   -5.2248 C   0  0  0  0  0  0  0  0  0  0  0  0
   -7.3956    4.2736   -3.5326 C   0  0  0  0  0  0  0  0  0  0  0  0
   -8.1932    6.1755   -6.7278 N   0  0  0  0  0  0  0  0  0  0  0  0
   -9.2427    7.0124   -6.9200 C   0  0  0  0  0  0  0  0  0  0  0  0
   -9.9617    7.0243   -8.2373 C   0  0  0  0  0  0  0  0  0  0  0  0
  -11.3368    7.6698   -8.1251 C   0  0  0  0  0  0  0  0  0  0  0  0
  -12.1481    7.4370   -9.3571 C   0  0  0  0  0  0  0  0  0  0  0  0
  -12.1069    6.0176   -9.7240 N   0  0  0  0  0  0  0  0  0  0  0  0
  -13.1370    5.1344   -9.8356 C   0  0  0  0  0  0  0  0  0  0  0  0
  -14.4457    5.5237   -9.6049 C   0  0  0  0  0  0  0  0  0  0  0  0
  -15.5782    5.6550   -9.4729 C   0  0  0  0  0  0  0  0  0  0  0  0
  -16.9391    5.8979   -9.2077 C   0  0  0  0  0  0  0  0  0  0  0  0
  -17.0517    6.2353   -7.8112 N   0  0  0  0  0  0  0  0  0  0  0  0
  -16.5462    5.3061   -6.8511 C   0  0  0  0  0  0  0  0  0  0  0  0
  -18.0385    7.1354   -7.3779 C   0  0  0  0  0  0  0  0  0  0  0  0
  -17.7656    4.6356   -9.4785 C   0  0  0  0  0  0  0  0  0  0  0  0
  -17.3881    7.0462  -10.1053 C   0  0  0  0  0  0  0  0  0  0  0  0
  -12.9207    3.9685  -10.1396 O   0  0  0  0  0  0  0  0  0  0  0  0
  -10.8350    5.4587   -9.9008 C   0  0  0  0  0  0  0  0  0  0  0  0
  -10.1974    5.5837   -8.5918 C   0  0  0  0  0  0  0  0  0  0  0  0
   -9.6389    7.7427   -6.0071 O   0  0  0  0  0  0  0  0  0  0  0  0
   -7.4804    5.4368   -7.8009 C   0  0  0  0  0  0  0  0  0  0  0  0
   -5.4123    6.2444   -5.8871 O   0  0  0  0  0  0  0  0  0  0  0  0
   -5.5638    9.8728   -3.8610 C   0  0  0  0  0  0  0  0  0  0  0  0
   -5.6475   10.7708   -5.0414 C   0  0  0  0  0  0  0  0  0  0  0  0
   -5.1494   10.2083   -6.3453 C   0  0  0  0  0  0  0  0  0  0  0  0
   -5.3432   11.1500   -7.4283 N   0  0  0  0  0  0  0  0  0  0  0  0
   -6.0545   12.4445   -7.0612 C   0  0  0  0  0  0  0  0  0  0  0  0
   -7.1732   12.2267   -6.1746 C   0  0  0  0  0  0  0  0  0  0  0  0
   -6.9944   11.1985   -5.2002 O   0  0  0  0  0  0  0  0  0  0  0  0
   -5.0322    7.6709   -1.8741 O   0  0  0  0  0  0  0  0  0  0  0  0
   -2.2110    7.7931   -1.7185 C   0  0  0  0  0  0  0  0  0  0  0  0
   -1.4265    9.0889   -1.4030 C   0  0  0  0  0  0  0  0  0  0  0  0
   -0.6958    9.5807   -2.6213 C   0  0  0  0  0  0  0  0  0  0  0  0
   -0.6648    9.0992   -5.8409 O   0  0  0  0  0  0  0  0  0  0  0  0
   -2.0897   12.0828   -8.9411 C   0  0  0  0  0  0  0  0  0  0  0  0
   -2.0291   11.2317  -10.0252 C   0  0  0  0  0  0  0  0  0  0  0  0
   -3.0700   10.2910  -10.2253 C   0  0  0  0  0  0  0  0  0  0  0  0
   -4.1223   10.2670   -9.3226 C   0  0  0  0  0  0  0  0  0  0  0  0
   -4.1880   11.1775   -8.2620 C   0  0  0  0  0  0  0  0  0  0  0  0
   -3.1106   12.0679   -8.0779 C   0  0  0  0  0  0  0  0  0  0  0  0
   -9.1825    7.6714   -9.1852 F   0  0  0  0  0  0  0  0  0  0  0  0
  1  2  1  0  0  0  0
  2  3  1  0  0  0  0
  2  5  1  0  0  0  0
  3  4  1  0  0  0  0
  5  6  4  0  0  0  0
  5 10  4  0  0  0  0
  6  7  4  0  0  0  0
  7  8  4  0  0  0  0
  8  9  4  0  0  0  0
  9 10  4  0  0  0  0
 10 11  1  0  0  0  0
 11 12  4  0  0  0  0
 11 15  4  0  0  0  0
 12 13  1  0  0  0  0
 12 68  4  0  0  0  0
 13 14  1  0  0  0  0
 15 16  1  0  0  0  0
 15 67  4  0  0  0  0
 16 17  1  0  0  0  0
 17 18  1  0  0  0  0
 17 19  1  0  0  0  0
 17 20  1  0  0  0  0
 20 21  1  0  0  0  0
 21 22  1  0  0  0  0
 22 23  1  0  0  0  0
 22 66  2  0  0  0  0
 23 24  1  0  0  0  0
 23 65  1  0  0  0  0
 24 25  1  0  0  0  0
 25 26  1  0  0  0  0
 25 63  1  0  0  0  0
 26 27  1  0  0  0  0
 26 62  2  0  0  0  0
 27 28  1  0  0  0  0
 27 55  1  0  0  0  0
 28 29  1  0  0  0  0
 29 30  1  0  0  0  0
 29 54  2  0  0  0  0
 30 31  1  0  0  0  0
 30 34  1  0  0  0  0
 31 32  1  0  0  0  0
 31 33  1  0  0  0  0
 34 35  1  0  0  0  0
 34 53  1  0  0  0  0
 35 36  1  0  0  0  0
 35 52  2  0  0  0  0
 36 37  1  0  0  0  0
 36 51  1  0  0  0  0
 36 73  1  0  0  0  0
 37 38  1  0  0  0  0
 38 39  1  0  0  0  0
 39 40  1  0  0  0  0
 39 50  1  0  0  0  0
 40 41  1  0  0  0  0
 40 49  2  0  0  0  0
 41 42  1  0  0  0  0
 42 43  1  0  0  0  0
 43 44  1  0  0  0  0
 43 47  1  0  0  0  0
 43 48  1  0  0  0  0
 44 45  1  0  0  0  0
 44 46  1  0  0  0  0
 50 51  1  0  0  0  0
 55 56  1  0  0  0  0
 56 57  1  0  0  0  0
 56 61  1  0  0  0  0
 57 58  1  0  0  0  0
 58 59  1  0  0  0  0
 58 71  1  0  0  0  0
 59 60  1  0  0  0  0
 60 61  1  0  0  0  0
 63 64  1  0  0  0  0
 64 65  1  0  0  0  0
 67 68  4  0  0  0  0
 67 72  4  0  0  0  0
 68 69  4  0  0  0  0
 69 70  4  0  0  0  0
 70 71  4  0  0  0  0
 71 72  4  0  0  0  0
M  END
$$$$
