mol_bioactive_22
  PyMOL3.1          3D                             0

 73 79  0  0  0  0  0  0  0  0999 V2000
   -0.5047   16.1192  -11.4417 C   0  0  0  0  0  0  0  0  0  0  0  0
   -0.0593   14.8335  -12.1435 C   0  0  0  0  0  0  0  0  0  0  0  0
   -1.0535   13.9127  -12.3255 O   0  0  0  0  0  0  0  0  0  0  0  0
   -2.1672   14.2371  -13.1483 C   0  0  0  0  0  0  0  0  0  0  0  0
    1.0710   14.1944  -11.4214 C   0  0  0  0  0  0  0  0  0  0  0  0
    2.2241   14.7371  -11.7358 N   0  0  0  0  0  0  0  0  0  0  0  0
    3.3601   14.2566  -11.2675 C   0  0  0  0  0  0  0  0  0  0  0  0
    3.3737   13.1691  -10.4202 C   0  0  0  0  0  0  0  0  0  0  0  0
    2.2019   12.5936  -10.0627 C   0  0  0  0  0  0  0  0  0  0  0  0
    1.0363   13.0861  -10.5421 C   0  0  0  0  0  0  0  0  0  0  0  0
   -0.1980   12.4678  -10.1077 C   0  0  0  0  0  0  0  0  0  0  0  0
   -0.8112   11.4404  -10.7690 N   0  0  0  0  0  0  0  0  0  0  0  0
   -0.3561   10.7385  -11.9747 C   0  0  0  0  0  0  0  0  0  0  0  0
    0.2700    9.3913  -11.6069 C   0  0  0  0  0  0  0  0  0  0  0  0
   -0.9567   12.8229   -9.0065 C   0  0  0  0  0  0  0  0  0  0  0  0
   -0.7217   13.8521   -7.9583 C   0  0  0  0  0  0  0  0  0  0  0  0
   -0.0178   13.3540   -6.6543 C   0  0  0  0  0  0  0  0  0  0  0  0
   -0.6531   14.0723   -5.4693 C   0  0  0  0  0  0  0  0  0  0  0  0
    1.4857   13.7049   -6.6979 C   0  0  0  0  0  0  0  0  0  0  0  0
   -0.0596   11.9336   -6.4435 C   0  0  0  0  0  0  0  0  0  0  0  0
   -0.7244   11.4049   -5.2588 O   0  0  0  0  0  0  0  0  0  0  0  0
   -1.0032   10.0389   -5.0858 C   0  0  0  0  0  0  0  0  0  0  0  0
   -1.7193    9.7279   -3.8151 C   0  0  0  0  0  0  0  0  0  0  0  0
   -2.4355    8.4759   -4.0010 N   0  0  0  0  0  0  0  0  0  0  0  0
   -3.1199    8.0485   -2.8876 N   0  0  0  0  0  0  0  0  0  0  0  0
   -4.4800    7.9750   -2.8872 C   0  0  0  0  0  0  0  0  0  0  0  0
   -5.2055    8.3555   -4.1563 C   0  0  0  0  0  0  0  0  0  0  0  0
   -6.3847    7.5289   -4.3910 N   0  0  0  0  0  0  0  0  0  0  0  0
   -6.4449    6.5090   -5.2640 C   0  0  0  0  0  0  0  0  0  0  0  0
   -7.7988    5.8902   -5.4068 C   0  0  0  0  0  0  0  0  0  0  0  0
   -7.8543    4.3871   -5.0054 C   0  0  0  0  0  0  0  0  0  0  0  0
   -9.2580    3.8332   -5.2422 C   0  0  0  0  0  0  0  0  0  0  0  0
   -7.4938    4.2197   -3.5249 C   0  0  0  0  0  0  0  0  0  0  0  0
   -8.2819    6.0819   -6.7508 N   0  0  0  0  0  0  0  0  0  0  0  0
   -9.2527    7.0078   -6.9523 C   0  0  0  0  0  0  0  0  0  0  0  0
   -9.9755    7.0703   -8.2721 C   0  0  0  0  0  0  0  0  0  0  0  0
  -10.9852    8.2021   -8.3145 C   0  0  0  0  0  0  0  0  0  0  0  0
  -11.7786    8.1170   -9.5665 C   0  0  0  0  0  0  0  0  0  0  0  0
  -12.3752    6.7792   -9.6765 N   0  0  0  0  0  0  0  0  0  0  0  0
  -13.7097    6.5374   -9.7156 C   0  0  0  0  0  0  0  0  0  0  0  0
  -14.5843    7.6024   -9.5133 C   0  0  0  0  0  0  0  0  0  0  0  0
  -15.3957    8.3790   -9.3649 C   0  0  0  0  0  0  0  0  0  0  0  0
  -16.2774    9.5034   -9.0875 C   0  0  0  0  0  0  0  0  0  0  0  0
  -16.9740    9.2376   -7.8037 N   0  0  0  0  0  0  0  0  0  0  0  0
  -16.0528    9.0346   -6.6617 C   0  0  0  0  0  0  0  0  0  0  0  0
  -17.9566    8.1431   -7.8754 C   0  0  0  0  0  0  0  0  0  0  0  0
  -15.4556   10.8066   -8.9721 C   0  0  0  0  0  0  0  0  0  0  0  0
  -17.2602    9.6112  -10.2461 C   0  0  0  0  0  0  0  0  0  0  0  0
  -14.1348    5.4119   -9.8955 O   0  0  0  0  0  0  0  0  0  0  0  0
  -11.4745    5.6627   -9.6735 C   0  0  0  0  0  0  0  0  0  0  0  0
  -10.7222    5.7429   -8.3880 C   0  0  0  0  0  0  0  0  0  0  0  0
   -9.5884    7.7659   -6.0273 O   0  0  0  0  0  0  0  0  0  0  0  0
   -7.6738    5.2468   -7.8216 C   0  0  0  0  0  0  0  0  0  0  0  0
   -5.4731    6.1489   -5.9182 O   0  0  0  0  0  0  0  0  0  0  0  0
   -5.6267    9.8404   -3.9937 C   0  0  0  0  0  0  0  0  0  0  0  0
   -5.6948   10.6885   -5.2291 C   0  0  0  0  0  0  0  0  0  0  0  0
   -5.1808   10.0672   -6.5241 C   0  0  0  0  0  0  0  0  0  0  0  0
   -5.3590   10.9871   -7.6435 N   0  0  0  0  0  0  0  0  0  0  0  0
   -6.0804   12.2971   -7.3039 C   0  0  0  0  0  0  0  0  0  0  0  0
   -7.1975   12.1136   -6.4147 C   0  0  0  0  0  0  0  0  0  0  0  0
   -7.0461   11.0878   -5.4326 O   0  0  0  0  0  0  0  0  0  0  0  0
   -5.1140    7.7134   -1.8882 O   0  0  0  0  0  0  0  0  0  0  0  0
   -2.2942    7.8269   -1.7008 C   0  0  0  0  0  0  0  0  0  0  0  0
   -1.5078    9.1313   -1.4029 C   0  0  0  0  0  0  0  0  0  0  0  0
   -0.7590    9.5899   -2.6310 C   0  0  0  0  0  0  0  0  0  0  0  0
   -0.7445    9.0844   -5.8660 O   0  0  0  0  0  0  0  0  0  0  0  0
   -2.0496   11.9877   -9.0435 C   0  0  0  0  0  0  0  0  0  0  0  0
   -1.9322   11.1317  -10.1241 C   0  0  0  0  0  0  0  0  0  0  0  0
   -2.9489   10.1698  -10.3593 C   0  0  0  0  0  0  0  0  0  0  0  0
   -4.0351   10.1206   -9.4912 C   0  0  0  0  0  0  0  0  0  0  0  0
   -4.1615   11.0335   -8.4358 C   0  0  0  0  0  0  0  0  0  0  0  0
   -3.0990   11.9517   -8.2196 C   0  0  0  0  0  0  0  0  0  0  0  0
   -9.0712    7.2518   -9.3074 F   0  0  0  0  0  0  0  0  0  0  0  0
  1  2  1  0  0  0  0
  2  3  1  0  0  0  0
  2  5  1  0  0  0  0
  3  4  1  0  0  0  0
  5  6  4  0  0  0  0
  5 10  4  0  0  0  0
  6  7  4  0  0  0  0
  7  8  4  0  0  0  0
  8  9  4  0  0  0  0
  9 10  4  0  0  0  0
 10 11  1  0  0  0  0
 11 12  4  0  0  0  0
 11 15  4  0  0  0  0
 12 13  1  0  0  0  0
 12 68  4  0  0  0  0
 13 14  1  0  0  0  0
 15 16  1  0  0  0  0
 15 67  4  0  0  0  0
 16 17  1  0  0  0  0
 17 18  1  0  0  0  0
 17 19  1  0  0  0  0
 17 20  1  0  0  0  0
 20 21  1  0  0  0  0
 21 22  1  0  0  0  0
 22 23  1  0  0  0  0
 22 66  2  0  0  0  0
 23 24  1  0  0  0  0
 23 65  1  0  0  0  0
 24 25  1  0  0  0  0
 25 26  1  0  0  0  0
 25 63  1  0  0  0  0
 26 27  1  0  0  0  0
 26 62  2  0  0  0  0
 27 28  1  0  0  0  0
 27 55  1  0  0  0  0
 28 29  1  0  0  0  0
 29 30  1  0  0  0  0
 29 54  2  0  0  0  0
 30 31  1  0  0  0  0
 30 34  1  0  0  0  0
 31 32  1  0  0  0  0
 31 33  1  0  0  0  0
 34 35  1  0  0  0  0
 34 53  1  0  0  0  0
 35 36  1  0  0  0  0
 35 52  2  0  0  0  0
 36 37  1  0  0  0  0
 36 51  1  0  0  0  0
 36 73  1  0  0  0  0
 37 38  1  0  0  0  0
 38 39  1  0  0  0  0
 39 40  1  0  0  0  0
 39 50  1  0  0  0  0
 40 41  1  0  0  0  0
 40 49  2  0  0  0  0
 41 42  1  0  0  0  0
 42 43  1  0  0  0  0
 43 44  1  0  0  0  0
 43 47  1  0  0  0  0
 43 48  1  0  0  0  0
 44 45  1  0  0  0  0
 44 46  1  0  0  0  0
 50 51  1  0  0  0  0
 55 56  1  0  0  0  0
 56 57  1  0  0  0  0
 56 61  1  0  0  0  0
 57 58  1  0  0  0  0
 58 59  1  0  0  0  0
 58 71  1  0  0  0  0
 59 60  1  0  0  0  0
 60 61  1  0  0  0  0
 63 64  1  0  0  0  0
 64 65  1  0  0  0  0
 67 68  4  0  0  0  0
 67 72  4  0  0  0  0
 68 69  4  0  0  0  0
 69 70  4  0  0  0  0
 70 71  4  0  0  0  0
 71 72  4  0  0  0  0
M  END
$$$$
