mol_ETKDG4_110
  PyMOL3.1          3D                             0

 73 79  0  0  0  0  0  0  0  0999 V2000
   -0.4501   16.4982  -11.4275 C   0  0  0  0  0  0  0  0  0  0  0  0
   -0.5308   14.9937  -11.5135 C   0  0  0  0  0  0  0  0  0  0  0  0
   -0.9947   14.5261  -12.7545 O   0  0  0  0  0  0  0  0  0  0  0  0
   -2.3852   14.2990  -12.8896 C   0  0  0  0  0  0  0  0  0  0  0  0
    0.7745   14.3370  -11.2606 C   0  0  0  0  0  0  0  0  0  0  0  0
    1.8816   14.9289  -11.6720 N   0  0  0  0  0  0  0  0  0  0  0  0
    3.0811   14.3393  -11.4811 C   0  0  0  0  0  0  0  0  0  0  0  0
    3.1818   13.1174  -10.8355 C   0  0  0  0  0  0  0  0  0  0  0  0
    2.0397   12.5091  -10.4102 C   0  0  0  0  0  0  0  0  0  0  0  0
    0.8365   13.1092  -10.6370 C   0  0  0  0  0  0  0  0  0  0  0  0
   -0.3636   12.4722  -10.1858 C   0  0  0  0  0  0  0  0  0  0  0  0
   -1.0177   11.4960  -10.8708 N   0  0  0  0  0  0  0  0  0  0  0  0
   -0.6160   10.8567  -12.1342 C   0  0  0  0  0  0  0  0  0  0  0  0
    0.0521    9.5045  -11.8541 C   0  0  0  0  0  0  0  0  0  0  0  0
   -1.0834   12.8063   -9.0429 C   0  0  0  0  0  0  0  0  0  0  0  0
   -0.8167   13.8167   -7.9637 C   0  0  0  0  0  0  0  0  0  0  0  0
    0.0170   13.3031   -6.7481 C   0  0  0  0  0  0  0  0  0  0  0  0
   -0.4328   14.0429   -5.4896 C   0  0  0  0  0  0  0  0  0  0  0  0
    1.5098   13.5979   -6.9728 C   0  0  0  0  0  0  0  0  0  0  0  0
   -0.0654   11.8817   -6.5241 C   0  0  0  0  0  0  0  0  0  0  0  0
   -0.7330   11.3855   -5.3209 O   0  0  0  0  0  0  0  0  0  0  0  0
   -0.9878   10.0153   -5.1131 C   0  0  0  0  0  0  0  0  0  0  0  0
   -1.7071    9.7252   -3.8401 C   0  0  0  0  0  0  0  0  0  0  0  0
   -2.4083    8.4664   -4.0167 N   0  0  0  0  0  0  0  0  0  0  0  0
   -3.0802    8.0387   -2.8956 N   0  0  0  0  0  0  0  0  0  0  0  0
   -4.4400    7.9434   -2.8880 C   0  0  0  0  0  0  0  0  0  0  0  0
   -5.1599    8.2589   -4.1622 C   0  0  0  0  0  0  0  0  0  0  0  0
   -6.3355    7.4486   -4.3576 N   0  0  0  0  0  0  0  0  0  0  0  0
   -6.4191    6.4782   -5.2778 C   0  0  0  0  0  0  0  0  0  0  0  0
   -7.7830    5.9065   -5.4354 C   0  0  0  0  0  0  0  0  0  0  0  0
   -7.8727    4.3999   -5.0579 C   0  0  0  0  0  0  0  0  0  0  0  0
   -9.2769    3.8842   -5.3223 C   0  0  0  0  0  0  0  0  0  0  0  0
   -7.5263    4.2144   -3.5729 C   0  0  0  0  0  0  0  0  0  0  0  0
   -8.2103    6.1406   -6.7913 N   0  0  0  0  0  0  0  0  0  0  0  0
   -9.1416    7.1027   -7.0108 C   0  0  0  0  0  0  0  0  0  0  0  0
   -9.7501    7.2515   -8.3795 C   0  0  0  0  0  0  0  0  0  0  0  0
  -10.8626    8.2930   -8.4267 C   0  0  0  0  0  0  0  0  0  0  0  0
  -11.5048    8.2788   -9.7691 C   0  0  0  0  0  0  0  0  0  0  0  0
  -11.9082    6.9023  -10.0931 N   0  0  0  0  0  0  0  0  0  0  0  0
  -13.1561    6.4688  -10.3067 C   0  0  0  0  0  0  0  0  0  0  0  0
  -14.2129    7.3528  -10.1865 C   0  0  0  0  0  0  0  0  0  0  0  0
  -15.1815    7.9449  -10.1251 C   0  0  0  0  0  0  0  0  0  0  0  0
  -16.3199    8.7584   -9.9581 C   0  0  0  0  0  0  0  0  0  0  0  0
  -16.4159    9.1539   -8.5743 N   0  0  0  0  0  0  0  0  0  0  0  0
  -16.0078    8.2486   -7.5535 C   0  0  0  0  0  0  0  0  0  0  0  0
  -16.9952   10.3687   -8.2005 C   0  0  0  0  0  0  0  0  0  0  0  0
  -17.5732    7.9626  -10.3086 C   0  0  0  0  0  0  0  0  0  0  0  0
  -16.1638    9.9724  -10.8685 C   0  0  0  0  0  0  0  0  0  0  0  0
  -13.3772    5.2948  -10.5822 O   0  0  0  0  0  0  0  0  0  0  0  0
  -10.8852    5.9076  -10.0897 C   0  0  0  0  0  0  0  0  0  0  0  0
  -10.3609    5.9055   -8.7077 C   0  0  0  0  0  0  0  0  0  0  0  0
   -9.5082    7.8430   -6.0903 O   0  0  0  0  0  0  0  0  0  0  0  0
   -7.5655    5.3184   -7.8588 C   0  0  0  0  0  0  0  0  0  0  0  0
   -5.4566    6.1469   -5.9624 O   0  0  0  0  0  0  0  0  0  0  0  0
   -5.6101    9.7477   -4.0726 C   0  0  0  0  0  0  0  0  0  0  0  0
   -6.1087   10.2342   -5.4080 C   0  0  0  0  0  0  0  0  0  0  0  0
   -4.9160   10.4631   -6.2853 C   0  0  0  0  0  0  0  0  0  0  0  0
   -5.3511   11.0271   -7.5676 N   0  0  0  0  0  0  0  0  0  0  0  0
   -6.1795   12.2973   -7.3315 C   0  0  0  0  0  0  0  0  0  0  0  0
   -7.3461   11.9825   -6.4703 C   0  0  0  0  0  0  0  0  0  0  0  0
   -6.8683   11.4285   -5.2222 O   0  0  0  0  0  0  0  0  0  0  0  0
   -5.0691    7.6828   -1.8825 O   0  0  0  0  0  0  0  0  0  0  0  0
   -2.2441    7.8184   -1.7193 C   0  0  0  0  0  0  0  0  0  0  0  0
   -1.4791    9.1389   -1.4220 C   0  0  0  0  0  0  0  0  0  0  0  0
   -0.7379    9.6068   -2.6595 C   0  0  0  0  0  0  0  0  0  0  0  0
   -0.7067    9.0385   -5.8587 O   0  0  0  0  0  0  0  0  0  0  0  0
   -2.1752   11.9931   -9.0779 C   0  0  0  0  0  0  0  0  0  0  0  0
   -2.1145   11.1775  -10.2048 C   0  0  0  0  0  0  0  0  0  0  0  0
   -3.1582   10.2469  -10.4447 C   0  0  0  0  0  0  0  0  0  0  0  0
   -4.2108   10.1952   -9.5435 C   0  0  0  0  0  0  0  0  0  0  0  0
   -4.2599   11.0686   -8.4372 C   0  0  0  0  0  0  0  0  0  0  0  0
   -3.1929   11.9454   -8.2123 C   0  0  0  0  0  0  0  0  0  0  0  0
   -8.7547    7.6136   -9.2892 F   0  0  0  0  0  0  0  0  0  0  0  0
  1  2  1  0  0  0  0
  2  3  1  0  0  0  0
  2  5  1  0  0  0  0
  3  4  1  0  0  0  0
  5  6  4  0  0  0  0
  5 10  4  0  0  0  0
  6  7  4  0  0  0  0
  7  8  4  0  0  0  0
  8  9  4  0  0  0  0
  9 10  4  0  0  0  0
 10 11  1  0  0  0  0
 11 12  4  0  0  0  0
 11 15  4  0  0  0  0
 12 13  1  0  0  0  0
 12 68  4  0  0  0  0
 13 14  1  0  0  0  0
 15 16  1  0  0  0  0
 15 67  4  0  0  0  0
 16 17  1  0  0  0  0
 17 18  1  0  0  0  0
 17 19  1  0  0  0  0
 17 20  1  0  0  0  0
 20 21  1  0  0  0  0
 21 22  1  0  0  0  0
 22 23  1  0  0  0  0
 22 66  2  0  0  0  0
 23 24  1  0  0  0  0
 23 65  1  0  0  0  0
 24 25  1  0  0  0  0
 25 26  1  0  0  0  0
 25 63  1  0  0  0  0
 26 27  1  0  0  0  0
 26 62  2  0  0  0  0
 27 28  1  0  0  0  0
 27 55  1  0  0  0  0
 28 29  1  0  0  0  0
 29 30  1  0  0  0  0
 29 54  2  0  0  0  0
 30 31  1  0  0  0  0
 30 34  1  0  0  0  0
 31 32  1  0  0  0  0
 31 33  1  0  0  0  0
 34 35  1  0  0  0  0
 34 53  1  0  0  0  0
 35 36  1  0  0  0  0
 35 52  2  0  0  0  0
 36 37  1  0  0  0  0
 36 51  1  0  0  0  0
 36 73  1  0  0  0  0
 37 38  1  0  0  0  0
 38 39  1  0  0  0  0
 39 40  1  0  0  0  0
 39 50  1  0  0  0  0
 40 41  1  0  0  0  0
 40 49  2  0  0  0  0
 41 42  1  0  0  0  0
 42 43  1  0  0  0  0
 43 44  1  0  0  0  0
 43 47  1  0  0  0  0
 43 48  1  0  0  0  0
 44 45  1  0  0  0  0
 44 46  1  0  0  0  0
 50 51  1  0  0  0  0
 55 56  1  0  0  0  0
 56 57  1  0  0  0  0
 56 61  1  0  0  0  0
 57 58  1  0  0  0  0
 58 59  1  0  0  0  0
 58 71  1  0  0  0  0
 59 60  1  0  0  0  0
 60 61  1  0  0  0  0
 63 64  1  0  0  0  0
 64 65  1  0  0  0  0
 67 68  4  0  0  0  0
 67 72  4  0  0  0  0
 68 69  4  0  0  0  0
 69 70  4  0  0  0  0
 70 71  4  0  0  0  0
 71 72  4  0  0  0  0
M  END
$$$$
