mol_ETKDG3_91
  PyMOL3.1          3D                             0

 73 79  0  0  0  0  0  0  0  0999 V2000
   -0.0692   16.4704  -11.8994 C   0  0  0  0  0  0  0  0  0  0  0  0
   -0.3571   15.0914  -11.3390 C   0  0  0  0  0  0  0  0  0  0  0  0
   -1.1403   14.3740  -12.2310 O   0  0  0  0  0  0  0  0  0  0  0  0
   -2.5532   14.5352  -12.1107 C   0  0  0  0  0  0  0  0  0  0  0  0
    0.8947   14.3271  -11.0752 C   0  0  0  0  0  0  0  0  0  0  0  0
    2.0558   14.8648  -11.4149 N   0  0  0  0  0  0  0  0  0  0  0  0
    3.2108   14.2100  -11.2196 C   0  0  0  0  0  0  0  0  0  0  0  0
    3.2295   12.9478  -10.6297 C   0  0  0  0  0  0  0  0  0  0  0  0
    2.0456   12.3910  -10.2736 C   0  0  0  0  0  0  0  0  0  0  0  0
    0.8853   13.0638  -10.5100 C   0  0  0  0  0  0  0  0  0  0  0  0
   -0.3500   12.4573  -10.1192 C   0  0  0  0  0  0  0  0  0  0  0  0
   -0.9816   11.4852  -10.8322 N   0  0  0  0  0  0  0  0  0  0  0  0
   -0.5531   10.8474  -12.0823 C   0  0  0  0  0  0  0  0  0  0  0  0
    0.0226    9.4582  -11.7849 C   0  0  0  0  0  0  0  0  0  0  0  0
   -1.1095   12.7898   -9.0139 C   0  0  0  0  0  0  0  0  0  0  0  0
   -0.8913   13.8050   -7.9346 C   0  0  0  0  0  0  0  0  0  0  0  0
   -0.1225   13.2867   -6.6793 C   0  0  0  0  0  0  0  0  0  0  0  0
   -0.6578   14.0197   -5.4460 C   0  0  0  0  0  0  0  0  0  0  0  0
    1.3788   13.6161   -6.8222 C   0  0  0  0  0  0  0  0  0  0  0  0
   -0.1921   11.8825   -6.4788 C   0  0  0  0  0  0  0  0  0  0  0  0
   -0.8116   11.3643   -5.2590 O   0  0  0  0  0  0  0  0  0  0  0  0
   -1.0466    9.9895   -5.0682 C   0  0  0  0  0  0  0  0  0  0  0  0
   -1.7392    9.6780   -3.7905 C   0  0  0  0  0  0  0  0  0  0  0  0
   -2.4288    8.4123   -3.9643 N   0  0  0  0  0  0  0  0  0  0  0  0
   -3.0821    7.9808   -2.8400 N   0  0  0  0  0  0  0  0  0  0  0  0
   -4.4369    7.8786   -2.8266 C   0  0  0  0  0  0  0  0  0  0  0  0
   -5.1510    8.1723   -4.1155 C   0  0  0  0  0  0  0  0  0  0  0  0
   -6.3321    7.3494   -4.2831 N   0  0  0  0  0  0  0  0  0  0  0  0
   -6.4246    6.3633   -5.1748 C   0  0  0  0  0  0  0  0  0  0  0  0
   -7.8044    5.8105   -5.3513 C   0  0  0  0  0  0  0  0  0  0  0  0
   -7.9522    4.3186   -4.9892 C   0  0  0  0  0  0  0  0  0  0  0  0
   -9.3923    3.8697   -5.2309 C   0  0  0  0  0  0  0  0  0  0  0  0
   -7.5745    4.1027   -3.5199 C   0  0  0  0  0  0  0  0  0  0  0  0
   -8.1554    6.0888   -6.7195 N   0  0  0  0  0  0  0  0  0  0  0  0
   -8.8398    7.2237   -6.9573 C   0  0  0  0  0  0  0  0  0  0  0  0
   -9.1540    7.6049   -8.3756 C   0  0  0  0  0  0  0  0  0  0  0  0
  -10.3437    8.5293   -8.4465 C   0  0  0  0  0  0  0  0  0  0  0  0
  -10.5214    8.9152   -9.8567 C   0  0  0  0  0  0  0  0  0  0  0  0
   -9.2763    9.5214  -10.3211 N   0  0  0  0  0  0  0  0  0  0  0  0
   -9.2138   10.8150  -10.6618 C   0  0  0  0  0  0  0  0  0  0  0  0
  -10.4155   11.4933  -10.6177 C   0  0  0  0  0  0  0  0  0  0  0  0
  -11.4095   12.0524  -10.5991 C   0  0  0  0  0  0  0  0  0  0  0  0
  -12.7234   12.6214  -10.5036 C   0  0  0  0  0  0  0  0  0  0  0  0
  -13.1222   12.7502   -9.0841 N   0  0  0  0  0  0  0  0  0  0  0  0
  -13.1506   11.4677   -8.3506 C   0  0  0  0  0  0  0  0  0  0  0  0
  -12.4100   13.8013   -8.3447 C   0  0  0  0  0  0  0  0  0  0  0  0
  -13.7376   11.7031  -11.2387 C   0  0  0  0  0  0  0  0  0  0  0  0
  -12.6929   13.9847  -11.1677 C   0  0  0  0  0  0  0  0  0  0  0  0
   -8.1681   11.3409  -10.9861 O   0  0  0  0  0  0  0  0  0  0  0  0
   -8.1000    8.7146  -10.3187 C   0  0  0  0  0  0  0  0  0  0  0  0
   -7.8920    8.2874   -8.9051 C   0  0  0  0  0  0  0  0  0  0  0  0
   -9.1896    7.9602   -6.0254 O   0  0  0  0  0  0  0  0  0  0  0  0
   -7.6302    5.1667   -7.7589 C   0  0  0  0  0  0  0  0  0  0  0  0
   -5.4662    6.0260   -5.8651 O   0  0  0  0  0  0  0  0  0  0  0  0
   -5.6007    9.6570   -4.0885 C   0  0  0  0  0  0  0  0  0  0  0  0
   -6.1072   10.0815   -5.4490 C   0  0  0  0  0  0  0  0  0  0  0  0
   -4.9154   10.3797   -6.3161 C   0  0  0  0  0  0  0  0  0  0  0  0
   -5.3669   10.9040   -7.6258 N   0  0  0  0  0  0  0  0  0  0  0  0
   -6.2810   12.1082   -7.4323 C   0  0  0  0  0  0  0  0  0  0  0  0
   -7.4526   11.7064   -6.5890 C   0  0  0  0  0  0  0  0  0  0  0  0
   -6.9520   11.2192   -5.3102 O   0  0  0  0  0  0  0  0  0  0  0  0
   -5.0675    7.6354   -1.8229 O   0  0  0  0  0  0  0  0  0  0  0  0
   -2.2431    7.7596   -1.6780 C   0  0  0  0  0  0  0  0  0  0  0  0
   -1.4723    9.0757   -1.3809 C   0  0  0  0  0  0  0  0  0  0  0  0
   -0.7563    9.5581   -2.6279 C   0  0  0  0  0  0  0  0  0  0  0  0
   -0.7710    9.0209   -5.8309 O   0  0  0  0  0  0  0  0  0  0  0  0
   -2.2028   11.9700   -9.0777 C   0  0  0  0  0  0  0  0  0  0  0  0
   -2.1024   11.1634  -10.2006 C   0  0  0  0  0  0  0  0  0  0  0  0
   -3.1332   10.2179  -10.4779 C   0  0  0  0  0  0  0  0  0  0  0  0
   -4.1940   10.1488   -9.6045 C   0  0  0  0  0  0  0  0  0  0  0  0
   -4.2768   11.0065   -8.4875 C   0  0  0  0  0  0  0  0  0  0  0  0
   -3.2537   11.9064   -8.2332 C   0  0  0  0  0  0  0  0  0  0  0  0
   -9.4537    6.5002   -9.1470 F   0  0  0  0  0  0  0  0  0  0  0  0
  1  2  1  0  0  0  0
  2  3  1  0  0  0  0
  2  5  1  0  0  0  0
  3  4  1  0  0  0  0
  5  6  4  0  0  0  0
  5 10  4  0  0  0  0
  6  7  4  0  0  0  0
  7  8  4  0  0  0  0
  8  9  4  0  0  0  0
  9 10  4  0  0  0  0
 10 11  1  0  0  0  0
 11 12  4  0  0  0  0
 11 15  4  0  0  0  0
 12 13  1  0  0  0  0
 12 68  4  0  0  0  0
 13 14  1  0  0  0  0
 15 16  1  0  0  0  0
 15 67  4  0  0  0  0
 16 17  1  0  0  0  0
 17 18  1  0  0  0  0
 17 19  1  0  0  0  0
 17 20  1  0  0  0  0
 20 21  1  0  0  0  0
 21 22  1  0  0  0  0
 22 23  1  0  0  0  0
 22 66  2  0  0  0  0
 23 24  1  0  0  0  0
 23 65  1  0  0  0  0
 24 25  1  0  0  0  0
 25 26  1  0  0  0  0
 25 63  1  0  0  0  0
 26 27  1  0  0  0  0
 26 62  2  0  0  0  0
 27 28  1  0  0  0  0
 27 55  1  0  0  0  0
 28 29  1  0  0  0  0
 29 30  1  0  0  0  0
 29 54  2  0  0  0  0
 30 31  1  0  0  0  0
 30 34  1  0  0  0  0
 31 32  1  0  0  0  0
 31 33  1  0  0  0  0
 34 35  1  0  0  0  0
 34 53  1  0  0  0  0
 35 36  1  0  0  0  0
 35 52  2  0  0  0  0
 36 37  1  0  0  0  0
 36 51  1  0  0  0  0
 36 73  1  0  0  0  0
 37 38  1  0  0  0  0
 38 39  1  0  0  0  0
 39 40  1  0  0  0  0
 39 50  1  0  0  0  0
 40 41  1  0  0  0  0
 40 49  2  0  0  0  0
 41 42  1  0  0  0  0
 42 43  1  0  0  0  0
 43 44  1  0  0  0  0
 43 47  1  0  0  0  0
 43 48  1  0  0  0  0
 44 45  1  0  0  0  0
 44 46  1  0  0  0  0
 50 51  1  0  0  0  0
 55 56  1  0  0  0  0
 56 57  1  0  0  0  0
 56 61  1  0  0  0  0
 57 58  1  0  0  0  0
 58 59  1  0  0  0  0
 58 71  1  0  0  0  0
 59 60  1  0  0  0  0
 60 61  1  0  0  0  0
 63 64  1  0  0  0  0
 64 65  1  0  0  0  0
 67 68  4  0  0  0  0
 67 72  4  0  0  0  0
 68 69  4  0  0  0  0
 69 70  4  0  0  0  0
 70 71  4  0  0  0  0
 71 72  4  0  0  0  0
M  END
$$$$
