mol_ETKDG5_144
  PyMOL3.1          3D                             0

 73 79  0  0  0  0  0  0  0  0999 V2000
   -0.0440   14.9416  -13.2005 C   0  0  0  0  0  0  0  0  0  0  0  0
   -0.0657   14.6890  -11.7046 C   0  0  0  0  0  0  0  0  0  0  0  0
   -0.3143   15.8398  -10.9372 O   0  0  0  0  0  0  0  0  0  0  0  0
   -1.6652   16.2276  -10.7272 C   0  0  0  0  0  0  0  0  0  0  0  0
    1.2017   14.1142  -11.2265 C   0  0  0  0  0  0  0  0  0  0  0  0
    2.3325   14.7107  -11.5614 N   0  0  0  0  0  0  0  0  0  0  0  0
    3.5084   14.2049  -11.1463 C   0  0  0  0  0  0  0  0  0  0  0  0
    3.5648   13.0462  -10.3793 C   0  0  0  0  0  0  0  0  0  0  0  0
    2.3985   12.4353  -10.0463 C   0  0  0  0  0  0  0  0  0  0  0  0
    1.2190   12.9740  -10.4684 C   0  0  0  0  0  0  0  0  0  0  0  0
   -0.0177   12.3452  -10.0814 C   0  0  0  0  0  0  0  0  0  0  0  0
   -0.6112   11.3419  -10.7783 N   0  0  0  0  0  0  0  0  0  0  0  0
   -0.1252   10.6942  -11.9933 C   0  0  0  0  0  0  0  0  0  0  0  0
    0.5027    9.3405  -11.6498 C   0  0  0  0  0  0  0  0  0  0  0  0
   -0.8165   12.7106   -9.0021 C   0  0  0  0  0  0  0  0  0  0  0  0
   -0.6418   13.7628   -7.9569 C   0  0  0  0  0  0  0  0  0  0  0  0
    0.0824   13.2963   -6.6521 C   0  0  0  0  0  0  0  0  0  0  0  0
   -0.5194   14.0496   -5.4619 C   0  0  0  0  0  0  0  0  0  0  0  0
    1.5900   13.6467   -6.7334 C   0  0  0  0  0  0  0  0  0  0  0  0
    0.0367   11.8932   -6.4169 C   0  0  0  0  0  0  0  0  0  0  0  0
   -0.6666   11.3766   -5.2403 O   0  0  0  0  0  0  0  0  0  0  0  0
   -0.9505   10.0056   -5.0733 C   0  0  0  0  0  0  0  0  0  0  0  0
   -1.6879    9.7045   -3.8161 C   0  0  0  0  0  0  0  0  0  0  0  0
   -2.3852    8.4471   -3.9989 N   0  0  0  0  0  0  0  0  0  0  0  0
   -3.0781    8.0348   -2.8799 N   0  0  0  0  0  0  0  0  0  0  0  0
   -4.4341    7.9460   -2.8871 C   0  0  0  0  0  0  0  0  0  0  0  0
   -5.1258    8.2293   -4.1870 C   0  0  0  0  0  0  0  0  0  0  0  0
   -6.3151    7.4306   -4.3670 N   0  0  0  0  0  0  0  0  0  0  0  0
   -6.4158    6.4743   -5.2906 C   0  0  0  0  0  0  0  0  0  0  0  0
   -7.7903    5.9021   -5.4237 C   0  0  0  0  0  0  0  0  0  0  0  0
   -7.8838    4.3962   -5.0489 C   0  0  0  0  0  0  0  0  0  0  0  0
   -9.3037    3.8915   -5.2712 C   0  0  0  0  0  0  0  0  0  0  0  0
   -7.4953    4.2000   -3.5778 C   0  0  0  0  0  0  0  0  0  0  0  0
   -8.2541    6.1366   -6.7632 N   0  0  0  0  0  0  0  0  0  0  0  0
   -9.1313    7.1375   -6.9687 C   0  0  0  0  0  0  0  0  0  0  0  0
   -9.8029    7.2612   -8.3020 C   0  0  0  0  0  0  0  0  0  0  0  0
  -10.5861    8.5433   -8.4444 C   0  0  0  0  0  0  0  0  0  0  0  0
  -11.2485    8.5271   -9.7575 C   0  0  0  0  0  0  0  0  0  0  0  0
  -12.0671    7.3085   -9.8588 N   0  0  0  0  0  0  0  0  0  0  0  0
  -13.3870    7.3343  -10.0317 C   0  0  0  0  0  0  0  0  0  0  0  0
  -13.9630    8.5646  -10.2077 C   0  0  0  0  0  0  0  0  0  0  0  0
  -14.5182    9.5148  -10.3942 C   0  0  0  0  0  0  0  0  0  0  0  0
  -15.0366   10.8514  -10.5676 C   0  0  0  0  0  0  0  0  0  0  0  0
  -16.0150   11.1317   -9.4998 N   0  0  0  0  0  0  0  0  0  0  0  0
  -15.4194   11.0654   -8.1422 C   0  0  0  0  0  0  0  0  0  0  0  0
  -17.2486   10.3264   -9.6025 C   0  0  0  0  0  0  0  0  0  0  0  0
  -15.6965   10.9235  -11.9459 C   0  0  0  0  0  0  0  0  0  0  0  0
  -13.8863   11.8731  -10.5048 C   0  0  0  0  0  0  0  0  0  0  0  0
  -14.0589    6.3121  -10.0405 O   0  0  0  0  0  0  0  0  0  0  0  0
  -11.4133    6.0349   -9.7133 C   0  0  0  0  0  0  0  0  0  0  0  0
  -10.7502    6.0593   -8.3967 C   0  0  0  0  0  0  0  0  0  0  0  0
   -9.4284    7.9188   -6.0508 O   0  0  0  0  0  0  0  0  0  0  0  0
   -7.7050    5.2508   -7.8348 C   0  0  0  0  0  0  0  0  0  0  0  0
   -5.4762    6.1206   -6.0011 O   0  0  0  0  0  0  0  0  0  0  0  0
   -5.5594    9.7213   -4.1825 C   0  0  0  0  0  0  0  0  0  0  0  0
   -6.0014   10.1339   -5.5746 C   0  0  0  0  0  0  0  0  0  0  0  0
   -4.7566   10.3825   -6.3832 C   0  0  0  0  0  0  0  0  0  0  0  0
   -5.1304   10.8717   -7.7179 N   0  0  0  0  0  0  0  0  0  0  0  0
   -6.0236   12.0961   -7.6101 C   0  0  0  0  0  0  0  0  0  0  0  0
   -7.2429   11.7626   -6.7895 C   0  0  0  0  0  0  0  0  0  0  0  0
   -6.8171   11.2910   -5.4921 O   0  0  0  0  0  0  0  0  0  0  0  0
   -5.0796    7.7116   -1.8927 O   0  0  0  0  0  0  0  0  0  0  0  0
   -2.2596    7.8311   -1.6879 C   0  0  0  0  0  0  0  0  0  0  0  0
   -1.5010    9.1512   -1.3917 C   0  0  0  0  0  0  0  0  0  0  0  0
   -0.7379    9.5956   -2.6229 C   0  0  0  0  0  0  0  0  0  0  0  0
   -0.6788    9.0488   -5.8422 O   0  0  0  0  0  0  0  0  0  0  0  0
   -1.8968   11.8723   -9.0815 C   0  0  0  0  0  0  0  0  0  0  0  0
   -1.7436   11.0299  -10.1707 C   0  0  0  0  0  0  0  0  0  0  0  0
   -2.7561   10.0713  -10.4450 C   0  0  0  0  0  0  0  0  0  0  0  0
   -3.8550   10.0231   -9.6090 C   0  0  0  0  0  0  0  0  0  0  0  0
   -3.9908   10.9253   -8.5328 C   0  0  0  0  0  0  0  0  0  0  0  0
   -2.9700   11.8317   -8.2697 C   0  0  0  0  0  0  0  0  0  0  0  0
   -8.8524    7.2485   -9.3142 F   0  0  0  0  0  0  0  0  0  0  0  0
  1  2  1  0  0  0  0
  2  3  1  0  0  0  0
  2  5  1  0  0  0  0
  3  4  1  0  0  0  0
  5  6  4  0  0  0  0
  5 10  4  0  0  0  0
  6  7  4  0  0  0  0
  7  8  4  0  0  0  0
  8  9  4  0  0  0  0
  9 10  4  0  0  0  0
 10 11  1  0  0  0  0
 11 12  4  0  0  0  0
 11 15  4  0  0  0  0
 12 13  1  0  0  0  0
 12 68  4  0  0  0  0
 13 14  1  0  0  0  0
 15 16  1  0  0  0  0
 15 67  4  0  0  0  0
 16 17  1  0  0  0  0
 17 18  1  0  0  0  0
 17 19  1  0  0  0  0
 17 20  1  0  0  0  0
 20 21  1  0  0  0  0
 21 22  1  0  0  0  0
 22 23  1  0  0  0  0
 22 66  2  0  0  0  0
 23 24  1  0  0  0  0
 23 65  1  0  0  0  0
 24 25  1  0  0  0  0
 25 26  1  0  0  0  0
 25 63  1  0  0  0  0
 26 27  1  0  0  0  0
 26 62  2  0  0  0  0
 27 28  1  0  0  0  0
 27 55  1  0  0  0  0
 28 29  1  0  0  0  0
 29 30  1  0  0  0  0
 29 54  2  0  0  0  0
 30 31  1  0  0  0  0
 30 34  1  0  0  0  0
 31 32  1  0  0  0  0
 31 33  1  0  0  0  0
 34 35  1  0  0  0  0
 34 53  1  0  0  0  0
 35 36  1  0  0  0  0
 35 52  2  0  0  0  0
 36 37  1  0  0  0  0
 36 51  1  0  0  0  0
 36 73  1  0  0  0  0
 37 38  1  0  0  0  0
 38 39  1  0  0  0  0
 39 40  1  0  0  0  0
 39 50  1  0  0  0  0
 40 41  1  0  0  0  0
 40 49  2  0  0  0  0
 41 42  1  0  0  0  0
 42 43  1  0  0  0  0
 43 44  1  0  0  0  0
 43 47  1  0  0  0  0
 43 48  1  0  0  0  0
 44 45  1  0  0  0  0
 44 46  1  0  0  0  0
 50 51  1  0  0  0  0
 55 56  1  0  0  0  0
 56 57  1  0  0  0  0
 56 61  1  0  0  0  0
 57 58  1  0  0  0  0
 58 59  1  0  0  0  0
 58 71  1  0  0  0  0
 59 60  1  0  0  0  0
 60 61  1  0  0  0  0
 63 64  1  0  0  0  0
 64 65  1  0  0  0  0
 67 68  4  0  0  0  0
 67 72  4  0  0  0  0
 68 69  4  0  0  0  0
 69 70  4  0  0  0  0
 70 71  4  0  0  0  0
 71 72  4  0  0  0  0
M  END
$$$$
