mol_ETKDG1_33
  PyMOL3.1          3D                             0

 73 79  0  0  0  0  0  0  0  0999 V2000
    0.0906   15.0604  -12.9301 C   0  0  0  0  0  0  0  0  0  0  0  0
   -0.0012   14.9406  -11.4231 C   0  0  0  0  0  0  0  0  0  0  0  0
   -0.2603   16.1357  -10.7513 O   0  0  0  0  0  0  0  0  0  0  0  0
   -1.6165   16.5384  -10.5965 C   0  0  0  0  0  0  0  0  0  0  0  0
    1.2414   14.3929  -10.8537 C   0  0  0  0  0  0  0  0  0  0  0  0
    2.3825   15.0039  -11.1246 N   0  0  0  0  0  0  0  0  0  0  0  0
    3.5366   14.5433  -10.6266 C   0  0  0  0  0  0  0  0  0  0  0  0
    3.5640   13.3979   -9.8301 C   0  0  0  0  0  0  0  0  0  0  0  0
    2.3906   12.7644   -9.5640 C   0  0  0  0  0  0  0  0  0  0  0  0
    1.2250   13.2624  -10.0791 C   0  0  0  0  0  0  0  0  0  0  0  0
   -0.0210   12.6208   -9.7683 C   0  0  0  0  0  0  0  0  0  0  0  0
   -0.5714   11.5976  -10.4776 N   0  0  0  0  0  0  0  0  0  0  0  0
   -0.0005   10.9189  -11.6397 C   0  0  0  0  0  0  0  0  0  0  0  0
    0.6655    9.6145  -11.1859 C   0  0  0  0  0  0  0  0  0  0  0  0
   -0.8822   12.9770   -8.7447 C   0  0  0  0  0  0  0  0  0  0  0  0
   -0.7518   14.0260   -7.7100 C   0  0  0  0  0  0  0  0  0  0  0  0
   -0.1336   13.5597   -6.3773 C   0  0  0  0  0  0  0  0  0  0  0  0
   -0.9355   14.1704   -5.2235 C   0  0  0  0  0  0  0  0  0  0  0  0
    1.3284   14.0342   -6.2590 C   0  0  0  0  0  0  0  0  0  0  0  0
   -0.0640   12.1172   -6.2025 C   0  0  0  0  0  0  0  0  0  0  0  0
   -0.7515   11.5112   -5.0893 O   0  0  0  0  0  0  0  0  0  0  0  0
   -1.0049   10.1359   -5.0098 C   0  0  0  0  0  0  0  0  0  0  0  0
   -1.7375    9.7717   -3.7662 C   0  0  0  0  0  0  0  0  0  0  0  0
   -2.4125    8.5009   -3.9807 N   0  0  0  0  0  0  0  0  0  0  0  0
   -3.0921    8.0521   -2.8768 N   0  0  0  0  0  0  0  0  0  0  0  0
   -4.4536    7.9601   -2.8748 C   0  0  0  0  0  0  0  0  0  0  0  0
   -5.1642    8.2657   -4.1676 C   0  0  0  0  0  0  0  0  0  0  0  0
   -6.3359    7.4461   -4.3648 N   0  0  0  0  0  0  0  0  0  0  0  0
   -6.4044    6.4814   -5.2699 C   0  0  0  0  0  0  0  0  0  0  0  0
   -7.7564    5.8738   -5.4242 C   0  0  0  0  0  0  0  0  0  0  0  0
   -7.8026    4.3652   -5.0275 C   0  0  0  0  0  0  0  0  0  0  0  0
   -9.1863    3.7983   -5.2878 C   0  0  0  0  0  0  0  0  0  0  0  0
   -7.4559    4.2098   -3.5394 C   0  0  0  0  0  0  0  0  0  0  0  0
   -8.2006    6.0683   -6.7778 N   0  0  0  0  0  0  0  0  0  0  0  0
   -9.2265    6.9350   -6.9924 C   0  0  0  0  0  0  0  0  0  0  0  0
   -9.8941    6.9478   -8.3409 C   0  0  0  0  0  0  0  0  0  0  0  0
  -11.1985    7.7388   -8.3655 C   0  0  0  0  0  0  0  0  0  0  0  0
  -11.8748    7.5428   -9.6734 C   0  0  0  0  0  0  0  0  0  0  0  0
  -11.9849    6.1045   -9.9772 N   0  0  0  0  0  0  0  0  0  0  0  0
  -13.1020    5.4133  -10.2162 C   0  0  0  0  0  0  0  0  0  0  0  0
  -14.3020    6.0694  -10.1510 C   0  0  0  0  0  0  0  0  0  0  0  0
  -15.3418    6.5175  -10.1496 C   0  0  0  0  0  0  0  0  0  0  0  0
  -16.5819    7.1616  -10.0773 C   0  0  0  0  0  0  0  0  0  0  0  0
  -16.6497    8.0557   -8.9439 N   0  0  0  0  0  0  0  0  0  0  0  0
  -15.7771    7.8382   -7.8377 C   0  0  0  0  0  0  0  0  0  0  0  0
  -17.8862    8.6721   -8.6546 C   0  0  0  0  0  0  0  0  0  0  0  0
  -17.6625    6.0895   -9.9479 C   0  0  0  0  0  0  0  0  0  0  0  0
  -16.7461    7.9935  -11.3598 C   0  0  0  0  0  0  0  0  0  0  0  0
  -13.0706    4.2164  -10.4803 O   0  0  0  0  0  0  0  0  0  0  0  0
  -10.7950    5.3450   -9.9500 C   0  0  0  0  0  0  0  0  0  0  0  0
  -10.2695    5.5105   -8.5999 C   0  0  0  0  0  0  0  0  0  0  0  0
   -9.6402    7.6717   -6.0907 O   0  0  0  0  0  0  0  0  0  0  0  0
   -7.4844    5.3062   -7.8357 C   0  0  0  0  0  0  0  0  0  0  0  0
   -5.4401    6.1494   -5.9482 O   0  0  0  0  0  0  0  0  0  0  0  0
   -5.6308    9.7487   -4.1167 C   0  0  0  0  0  0  0  0  0  0  0  0
   -6.0769   10.2070   -5.4904 C   0  0  0  0  0  0  0  0  0  0  0  0
   -4.8394   10.4842   -6.2916 C   0  0  0  0  0  0  0  0  0  0  0  0
   -5.2032   11.0271   -7.6082 N   0  0  0  0  0  0  0  0  0  0  0  0
   -6.1216   12.2415   -7.4479 C   0  0  0  0  0  0  0  0  0  0  0  0
   -7.3350   11.8540   -6.6513 C   0  0  0  0  0  0  0  0  0  0  0  0
   -6.9122   11.3496   -5.3703 O   0  0  0  0  0  0  0  0  0  0  0  0
   -5.0981    7.7131   -1.8846 O   0  0  0  0  0  0  0  0  0  0  0  0
   -2.2683    7.8192   -1.7027 C   0  0  0  0  0  0  0  0  0  0  0  0
   -1.5247    9.1415   -1.3649 C   0  0  0  0  0  0  0  0  0  0  0  0
   -0.7800    9.6471   -2.5831 C   0  0  0  0  0  0  0  0  0  0  0  0
   -0.7117    9.2242   -5.8227 O   0  0  0  0  0  0  0  0  0  0  0  0
   -1.9461   12.1204   -8.8558 C   0  0  0  0  0  0  0  0  0  0  0  0
   -1.7297   11.2691   -9.9234 C   0  0  0  0  0  0  0  0  0  0  0  0
   -2.7064   10.2868  -10.2314 C   0  0  0  0  0  0  0  0  0  0  0  0
   -3.8443   10.2203   -9.4433 C   0  0  0  0  0  0  0  0  0  0  0  0
   -4.0479   11.1250   -8.3807 C   0  0  0  0  0  0  0  0  0  0  0  0
   -3.0592   12.0614   -8.0992 C   0  0  0  0  0  0  0  0  0  0  0  0
   -9.0106    7.4473   -9.2803 F   0  0  0  0  0  0  0  0  0  0  0  0
  1  2  1  0  0  0  0
  2  3  1  0  0  0  0
  2  5  1  0  0  0  0
  3  4  1  0  0  0  0
  5  6  4  0  0  0  0
  5 10  4  0  0  0  0
  6  7  4  0  0  0  0
  7  8  4  0  0  0  0
  8  9  4  0  0  0  0
  9 10  4  0  0  0  0
 10 11  1  0  0  0  0
 11 12  4  0  0  0  0
 11 15  4  0  0  0  0
 12 13  1  0  0  0  0
 12 68  4  0  0  0  0
 13 14  1  0  0  0  0
 15 16  1  0  0  0  0
 15 67  4  0  0  0  0
 16 17  1  0  0  0  0
 17 18  1  0  0  0  0
 17 19  1  0  0  0  0
 17 20  1  0  0  0  0
 20 21  1  0  0  0  0
 21 22  1  0  0  0  0
 22 23  1  0  0  0  0
 22 66  2  0  0  0  0
 23 24  1  0  0  0  0
 23 65  1  0  0  0  0
 24 25  1  0  0  0  0
 25 26  1  0  0  0  0
 25 63  1  0  0  0  0
 26 27  1  0  0  0  0
 26 62  2  0  0  0  0
 27 28  1  0  0  0  0
 27 55  1  0  0  0  0
 28 29  1  0  0  0  0
 29 30  1  0  0  0  0
 29 54  2  0  0  0  0
 30 31  1  0  0  0  0
 30 34  1  0  0  0  0
 31 32  1  0  0  0  0
 31 33  1  0  0  0  0
 34 35  1  0  0  0  0
 34 53  1  0  0  0  0
 35 36  1  0  0  0  0
 35 52  2  0  0  0  0
 36 37  1  0  0  0  0
 36 51  1  0  0  0  0
 36 73  1  0  0  0  0
 37 38  1  0  0  0  0
 38 39  1  0  0  0  0
 39 40  1  0  0  0  0
 39 50  1  0  0  0  0
 40 41  1  0  0  0  0
 40 49  2  0  0  0  0
 41 42  1  0  0  0  0
 42 43  1  0  0  0  0
 43 44  1  0  0  0  0
 43 47  1  0  0  0  0
 43 48  1  0  0  0  0
 44 45  1  0  0  0  0
 44 46  1  0  0  0  0
 50 51  1  0  0  0  0
 55 56  1  0  0  0  0
 56 57  1  0  0  0  0
 56 61  1  0  0  0  0
 57 58  1  0  0  0  0
 58 59  1  0  0  0  0
 58 71  1  0  0  0  0
 59 60  1  0  0  0  0
 60 61  1  0  0  0  0
 63 64  1  0  0  0  0
 64 65  1  0  0  0  0
 67 68  4  0  0  0  0
 67 72  4  0  0  0  0
 68 69  4  0  0  0  0
 69 70  4  0  0  0  0
 70 71  4  0  0  0  0
 71 72  4  0  0  0  0
M  END
$$$$
