mol_ETKDG0_169
  PyMOL3.1          3D                             0

 73 79  0  0  0  0  0  0  0  0999 V2000
   -0.0764   16.3518  -11.9628 C   0  0  0  0  0  0  0  0  0  0  0  0
   -0.2174   14.8934  -11.5858 C   0  0  0  0  0  0  0  0  0  0  0  0
   -0.7093   14.1375  -12.6542 O   0  0  0  0  0  0  0  0  0  0  0  0
   -2.1244   14.0799  -12.8022 C   0  0  0  0  0  0  0  0  0  0  0  0
    1.0768   14.2903  -11.1662 C   0  0  0  0  0  0  0  0  0  0  0  0
    2.2038   14.9016  -11.5060 N   0  0  0  0  0  0  0  0  0  0  0  0
    3.3967   14.3749  -11.1755 C   0  0  0  0  0  0  0  0  0  0  0  0
    3.4809   13.1930  -10.4444 C   0  0  0  0  0  0  0  0  0  0  0  0
    2.3288   12.5681  -10.0899 C   0  0  0  0  0  0  0  0  0  0  0  0
    1.1284   13.1010  -10.4673 C   0  0  0  0  0  0  0  0  0  0  0  0
   -0.0870   12.4475  -10.0774 C   0  0  0  0  0  0  0  0  0  0  0  0
   -0.6757   11.4276  -10.7603 N   0  0  0  0  0  0  0  0  0  0  0  0
   -0.1730   10.7338  -11.9532 C   0  0  0  0  0  0  0  0  0  0  0  0
    0.4462    9.3882  -11.5529 C   0  0  0  0  0  0  0  0  0  0  0  0
   -0.8861   12.8054   -9.0002 C   0  0  0  0  0  0  0  0  0  0  0  0
   -0.6878   13.8511   -7.9470 C   0  0  0  0  0  0  0  0  0  0  0  0
   -0.0008   13.3648   -6.6429 C   0  0  0  0  0  0  0  0  0  0  0  0
   -0.6672   14.0588   -5.4573 C   0  0  0  0  0  0  0  0  0  0  0  0
    1.4968   13.7413   -6.6579 C   0  0  0  0  0  0  0  0  0  0  0  0
   -0.0220   11.9365   -6.4405 C   0  0  0  0  0  0  0  0  0  0  0  0
   -0.6864   11.4001   -5.2686 O   0  0  0  0  0  0  0  0  0  0  0  0
   -0.9519   10.0268   -5.0982 C   0  0  0  0  0  0  0  0  0  0  0  0
   -1.6721    9.7171   -3.8329 C   0  0  0  0  0  0  0  0  0  0  0  0
   -2.3902    8.4627   -4.0125 N   0  0  0  0  0  0  0  0  0  0  0  0
   -3.0739    8.0451   -2.8978 N   0  0  0  0  0  0  0  0  0  0  0  0
   -4.4353    7.9576   -2.8951 C   0  0  0  0  0  0  0  0  0  0  0  0
   -5.1395    8.2590   -4.1893 C   0  0  0  0  0  0  0  0  0  0  0  0
   -6.3265    7.4574   -4.3771 N   0  0  0  0  0  0  0  0  0  0  0  0
   -6.3991    6.4933   -5.2952 C   0  0  0  0  0  0  0  0  0  0  0  0
   -7.7598    5.9147   -5.4468 C   0  0  0  0  0  0  0  0  0  0  0  0
   -7.8341    4.4032   -5.0607 C   0  0  0  0  0  0  0  0  0  0  0  0
   -9.2298    3.8593   -5.3315 C   0  0  0  0  0  0  0  0  0  0  0  0
   -7.5068    4.2241   -3.5724 C   0  0  0  0  0  0  0  0  0  0  0  0
   -8.2142    6.1364   -6.7958 N   0  0  0  0  0  0  0  0  0  0  0  0
   -9.2248    7.0237   -6.9793 C   0  0  0  0  0  0  0  0  0  0  0  0
   -9.9631    7.0652   -8.2889 C   0  0  0  0  0  0  0  0  0  0  0  0
  -11.3394    7.7143   -8.1093 C   0  0  0  0  0  0  0  0  0  0  0  0
  -12.2048    7.5014   -9.3095 C   0  0  0  0  0  0  0  0  0  0  0  0
  -12.1799    6.0834   -9.6941 N   0  0  0  0  0  0  0  0  0  0  0  0
  -13.2107    5.1918   -9.6716 C   0  0  0  0  0  0  0  0  0  0  0  0
  -14.4293    5.5920   -9.2043 C   0  0  0  0  0  0  0  0  0  0  0  0
  -15.4852    5.8093   -8.8506 C   0  0  0  0  0  0  0  0  0  0  0  0
  -16.7255    6.2434   -8.2888 C   0  0  0  0  0  0  0  0  0  0  0  0
  -16.9325    5.6605   -6.9596 N   0  0  0  0  0  0  0  0  0  0  0  0
  -15.7395    5.3837   -6.1672 C   0  0  0  0  0  0  0  0  0  0  0  0
  -18.0338    6.1670   -6.1862 C   0  0  0  0  0  0  0  0  0  0  0  0
  -16.7044    7.7898   -8.1863 C   0  0  0  0  0  0  0  0  0  0  0  0
  -17.8390    5.7678   -9.2227 C   0  0  0  0  0  0  0  0  0  0  0  0
  -13.0624    4.0262  -10.0449 O   0  0  0  0  0  0  0  0  0  0  0  0
  -10.9251    5.5364   -9.9822 C   0  0  0  0  0  0  0  0  0  0  0  0
  -10.2136    5.6300   -8.6869 C   0  0  0  0  0  0  0  0  0  0  0  0
   -9.5829    7.7693   -6.0549 O   0  0  0  0  0  0  0  0  0  0  0  0
   -7.5208    5.3845   -7.8721 C   0  0  0  0  0  0  0  0  0  0  0  0
   -5.4457    6.1441   -5.9720 O   0  0  0  0  0  0  0  0  0  0  0  0
   -5.5760    9.7527   -4.1605 C   0  0  0  0  0  0  0  0  0  0  0  0
   -6.0278   10.1891   -5.5356 C   0  0  0  0  0  0  0  0  0  0  0  0
   -4.8077   10.4223   -6.3713 C   0  0  0  0  0  0  0  0  0  0  0  0
   -5.1886   10.9560   -7.6864 N   0  0  0  0  0  0  0  0  0  0  0  0
   -6.0669   12.2073   -7.5117 C   0  0  0  0  0  0  0  0  0  0  0  0
   -7.2684   11.8707   -6.6873 C   0  0  0  0  0  0  0  0  0  0  0  0
   -6.8326   11.3639   -5.4188 O   0  0  0  0  0  0  0  0  0  0  0  0
   -5.0767    7.7224   -1.8966 O   0  0  0  0  0  0  0  0  0  0  0  0
   -2.2336    7.8207   -1.7075 C   0  0  0  0  0  0  0  0  0  0  0  0
   -1.4642    9.1169   -1.4140 C   0  0  0  0  0  0  0  0  0  0  0  0
   -0.7087    9.5833   -2.6465 C   0  0  0  0  0  0  0  0  0  0  0  0
   -0.6714    9.0748   -5.8679 O   0  0  0  0  0  0  0  0  0  0  0  0
   -1.9651   11.9639   -9.0689 C   0  0  0  0  0  0  0  0  0  0  0  0
   -1.8091   11.1092  -10.1506 C   0  0  0  0  0  0  0  0  0  0  0  0
   -2.8061   10.1404  -10.4135 C   0  0  0  0  0  0  0  0  0  0  0  0
   -3.9099   10.0912   -9.5633 C   0  0  0  0  0  0  0  0  0  0  0  0
   -4.0518   11.0052   -8.5051 C   0  0  0  0  0  0  0  0  0  0  0  0
   -3.0380   11.9240   -8.2608 C   0  0  0  0  0  0  0  0  0  0  0  0
   -9.2098    7.7370   -9.2377 F   0  0  0  0  0  0  0  0  0  0  0  0
  1  2  1  0  0  0  0
  2  3  1  0  0  0  0
  2  5  1  0  0  0  0
  3  4  1  0  0  0  0
  5  6  4  0  0  0  0
  5 10  4  0  0  0  0
  6  7  4  0  0  0  0
  7  8  4  0  0  0  0
  8  9  4  0  0  0  0
  9 10  4  0  0  0  0
 10 11  1  0  0  0  0
 11 12  4  0  0  0  0
 11 15  4  0  0  0  0
 12 13  1  0  0  0  0
 12 68  4  0  0  0  0
 13 14  1  0  0  0  0
 15 16  1  0  0  0  0
 15 67  4  0  0  0  0
 16 17  1  0  0  0  0
 17 18  1  0  0  0  0
 17 19  1  0  0  0  0
 17 20  1  0  0  0  0
 20 21  1  0  0  0  0
 21 22  1  0  0  0  0
 22 23  1  0  0  0  0
 22 66  2  0  0  0  0
 23 24  1  0  0  0  0
 23 65  1  0  0  0  0
 24 25  1  0  0  0  0
 25 26  1  0  0  0  0
 25 63  1  0  0  0  0
 26 27  1  0  0  0  0
 26 62  2  0  0  0  0
 27 28  1  0  0  0  0
 27 55  1  0  0  0  0
 28 29  1  0  0  0  0
 29 30  1  0  0  0  0
 29 54  2  0  0  0  0
 30 31  1  0  0  0  0
 30 34  1  0  0  0  0
 31 32  1  0  0  0  0
 31 33  1  0  0  0  0
 34 35  1  0  0  0  0
 34 53  1  0  0  0  0
 35 36  1  0  0  0  0
 35 52  2  0  0  0  0
 36 37  1  0  0  0  0
 36 51  1  0  0  0  0
 36 73  1  0  0  0  0
 37 38  1  0  0  0  0
 38 39  1  0  0  0  0
 39 40  1  0  0  0  0
 39 50  1  0  0  0  0
 40 41  1  0  0  0  0
 40 49  2  0  0  0  0
 41 42  1  0  0  0  0
 42 43  1  0  0  0  0
 43 44  1  0  0  0  0
 43 47  1  0  0  0  0
 43 48  1  0  0  0  0
 44 45  1  0  0  0  0
 44 46  1  0  0  0  0
 50 51  1  0  0  0  0
 55 56  1  0  0  0  0
 56 57  1  0  0  0  0
 56 61  1  0  0  0  0
 57 58  1  0  0  0  0
 58 59  1  0  0  0  0
 58 71  1  0  0  0  0
 59 60  1  0  0  0  0
 60 61  1  0  0  0  0
 63 64  1  0  0  0  0
 64 65  1  0  0  0  0
 67 68  4  0  0  0  0
 67 72  4  0  0  0  0
 68 69  4  0  0  0  0
 69 70  4  0  0  0  0
 70 71  4  0  0  0  0
 71 72  4  0  0  0  0
M  END
$$$$
