mol_ETKDG2_52
  PyMOL3.1          3D                             0

 73 79  0  0  0  0  0  0  0  0999 V2000
   -0.1052   15.1452  -12.6261 C   0  0  0  0  0  0  0  0  0  0  0  0
    0.0476   15.1525  -11.1094 C   0  0  0  0  0  0  0  0  0  0  0  0
    0.0473   16.4595  -10.5614 O   0  0  0  0  0  0  0  0  0  0  0  0
   -1.0961   16.8545   -9.8263 C   0  0  0  0  0  0  0  0  0  0  0  0
    1.2855   14.4829  -10.6993 C   0  0  0  0  0  0  0  0  0  0  0  0
    2.4363   15.0699  -10.9795 N   0  0  0  0  0  0  0  0  0  0  0  0
    3.5941   14.4905  -10.6491 C   0  0  0  0  0  0  0  0  0  0  0  0
    3.6176   13.2455  -10.0137 C   0  0  0  0  0  0  0  0  0  0  0  0
    2.4396   12.6391   -9.7319 C   0  0  0  0  0  0  0  0  0  0  0  0
    1.2754   13.2529  -10.0736 C   0  0  0  0  0  0  0  0  0  0  0  0
    0.0332   12.6178   -9.7368 C   0  0  0  0  0  0  0  0  0  0  0  0
   -0.5536   11.6417  -10.4710 N   0  0  0  0  0  0  0  0  0  0  0  0
   -0.0453   11.0145  -11.6892 C   0  0  0  0  0  0  0  0  0  0  0  0
    0.5149    9.6373  -11.3549 C   0  0  0  0  0  0  0  0  0  0  0  0
   -0.7931   12.9410   -8.6680 C   0  0  0  0  0  0  0  0  0  0  0  0
   -0.6165   13.9340   -7.5831 C   0  0  0  0  0  0  0  0  0  0  0  0
    0.1221   13.4027   -6.3312 C   0  0  0  0  0  0  0  0  0  0  0  0
   -0.4757   14.0727   -5.0982 C   0  0  0  0  0  0  0  0  0  0  0  0
    1.6206   13.7692   -6.4095 C   0  0  0  0  0  0  0  0  0  0  0  0
    0.0927   11.9733   -6.1805 C   0  0  0  0  0  0  0  0  0  0  0  0
   -0.6315   11.3956   -5.0700 O   0  0  0  0  0  0  0  0  0  0  0  0
   -0.9520   10.0335   -4.9934 C   0  0  0  0  0  0  0  0  0  0  0  0
   -1.6931    9.6876   -3.7547 C   0  0  0  0  0  0  0  0  0  0  0  0
   -2.3978    8.4363   -3.9723 N   0  0  0  0  0  0  0  0  0  0  0  0
   -3.0779    7.9892   -2.8668 N   0  0  0  0  0  0  0  0  0  0  0  0
   -4.4370    7.8851   -2.8615 C   0  0  0  0  0  0  0  0  0  0  0  0
   -5.1509    8.2088   -4.1441 C   0  0  0  0  0  0  0  0  0  0  0  0
   -6.3257    7.3891   -4.3436 N   0  0  0  0  0  0  0  0  0  0  0  0
   -6.4051    6.4153   -5.2472 C   0  0  0  0  0  0  0  0  0  0  0  0
   -7.7557    5.8083   -5.3857 C   0  0  0  0  0  0  0  0  0  0  0  0
   -7.8165    4.3029   -5.0045 C   0  0  0  0  0  0  0  0  0  0  0  0
   -9.2185    3.7628   -5.2520 C   0  0  0  0  0  0  0  0  0  0  0  0
   -7.4565    4.1266   -3.5281 C   0  0  0  0  0  0  0  0  0  0  0  0
   -8.2264    6.0318   -6.7236 N   0  0  0  0  0  0  0  0  0  0  0  0
   -9.1604    6.9921   -6.9019 C   0  0  0  0  0  0  0  0  0  0  0  0
   -9.8651    7.1104   -8.2250 C   0  0  0  0  0  0  0  0  0  0  0  0
  -11.0075    8.1081   -8.1400 C   0  0  0  0  0  0  0  0  0  0  0  0
  -11.8028    8.0753   -9.3802 C   0  0  0  0  0  0  0  0  0  0  0  0
  -12.2085    6.6941   -9.6645 N   0  0  0  0  0  0  0  0  0  0  0  0
  -13.4757    6.2346   -9.7119 C   0  0  0  0  0  0  0  0  0  0  0  0
  -14.5136    7.0470   -9.2832 C   0  0  0  0  0  0  0  0  0  0  0  0
  -15.4443    7.6303   -8.9528 C   0  0  0  0  0  0  0  0  0  0  0  0
  -16.5307    8.4145   -8.4608 C   0  0  0  0  0  0  0  0  0  0  0  0
  -16.1541    9.1234   -7.2375 N   0  0  0  0  0  0  0  0  0  0  0  0
  -15.5339    8.2724   -6.2184 C   0  0  0  0  0  0  0  0  0  0  0  0
  -15.4203   10.3746   -7.4527 C   0  0  0  0  0  0  0  0  0  0  0  0
  -17.7098    7.4986   -8.1405 C   0  0  0  0  0  0  0  0  0  0  0  0
  -16.9216    9.4176   -9.5474 C   0  0  0  0  0  0  0  0  0  0  0  0
  -13.7122    5.0975  -10.0918 O   0  0  0  0  0  0  0  0  0  0  0  0
  -11.1662    5.7374   -9.8005 C   0  0  0  0  0  0  0  0  0  0  0  0
  -10.4696    5.7487   -8.5008 C   0  0  0  0  0  0  0  0  0  0  0  0
   -9.4638    7.7478   -5.9763 O   0  0  0  0  0  0  0  0  0  0  0  0
   -7.6312    5.2011   -7.8047 C   0  0  0  0  0  0  0  0  0  0  0  0
   -5.4552    6.0774   -5.9397 O   0  0  0  0  0  0  0  0  0  0  0  0
   -5.6011    9.6841   -4.0661 C   0  0  0  0  0  0  0  0  0  0  0  0
   -6.0251   10.1817   -5.4289 C   0  0  0  0  0  0  0  0  0  0  0  0
   -4.7886   10.4622   -6.2228 C   0  0  0  0  0  0  0  0  0  0  0  0
   -5.1439   11.0509   -7.5160 N   0  0  0  0  0  0  0  0  0  0  0  0
   -6.0244   12.2810   -7.3153 C   0  0  0  0  0  0  0  0  0  0  0  0
   -7.2418   11.9128   -6.5193 C   0  0  0  0  0  0  0  0  0  0  0  0
   -6.8307   11.3472   -5.2673 O   0  0  0  0  0  0  0  0  0  0  0  0
   -5.0713    7.6225   -1.8709 O   0  0  0  0  0  0  0  0  0  0  0  0
   -2.2581    7.7489   -1.6865 C   0  0  0  0  0  0  0  0  0  0  0  0
   -1.5038    9.0538   -1.3530 C   0  0  0  0  0  0  0  0  0  0  0  0
   -0.7479    9.5406   -2.5677 C   0  0  0  0  0  0  0  0  0  0  0  0
   -0.7004    9.1184   -5.8133 O   0  0  0  0  0  0  0  0  0  0  0  0
   -1.8781   12.1117   -8.7853 C   0  0  0  0  0  0  0  0  0  0  0  0
   -1.7055   11.3066   -9.8946 C   0  0  0  0  0  0  0  0  0  0  0  0
   -2.7095   10.3548  -10.2132 C   0  0  0  0  0  0  0  0  0  0  0  0
   -3.8269   10.2761   -9.4047 C   0  0  0  0  0  0  0  0  0  0  0  0
   -3.9938   11.1414   -8.2992 C   0  0  0  0  0  0  0  0  0  0  0  0
   -2.9753   12.0429   -8.0032 C   0  0  0  0  0  0  0  0  0  0  0  0
   -8.9629    7.4977   -9.2016 F   0  0  0  0  0  0  0  0  0  0  0  0
  1  2  1  0  0  0  0
  2  3  1  0  0  0  0
  2  5  1  0  0  0  0
  3  4  1  0  0  0  0
  5  6  4  0  0  0  0
  5 10  4  0  0  0  0
  6  7  4  0  0  0  0
  7  8  4  0  0  0  0
  8  9  4  0  0  0  0
  9 10  4  0  0  0  0
 10 11  1  0  0  0  0
 11 12  4  0  0  0  0
 11 15  4  0  0  0  0
 12 13  1  0  0  0  0
 12 68  4  0  0  0  0
 13 14  1  0  0  0  0
 15 16  1  0  0  0  0
 15 67  4  0  0  0  0
 16 17  1  0  0  0  0
 17 18  1  0  0  0  0
 17 19  1  0  0  0  0
 17 20  1  0  0  0  0
 20 21  1  0  0  0  0
 21 22  1  0  0  0  0
 22 23  1  0  0  0  0
 22 66  2  0  0  0  0
 23 24  1  0  0  0  0
 23 65  1  0  0  0  0
 24 25  1  0  0  0  0
 25 26  1  0  0  0  0
 25 63  1  0  0  0  0
 26 27  1  0  0  0  0
 26 62  2  0  0  0  0
 27 28  1  0  0  0  0
 27 55  1  0  0  0  0
 28 29  1  0  0  0  0
 29 30  1  0  0  0  0
 29 54  2  0  0  0  0
 30 31  1  0  0  0  0
 30 34  1  0  0  0  0
 31 32  1  0  0  0  0
 31 33  1  0  0  0  0
 34 35  1  0  0  0  0
 34 53  1  0  0  0  0
 35 36  1  0  0  0  0
 35 52  2  0  0  0  0
 36 37  1  0  0  0  0
 36 51  1  0  0  0  0
 36 73  1  0  0  0  0
 37 38  1  0  0  0  0
 38 39  1  0  0  0  0
 39 40  1  0  0  0  0
 39 50  1  0  0  0  0
 40 41  1  0  0  0  0
 40 49  2  0  0  0  0
 41 42  1  0  0  0  0
 42 43  1  0  0  0  0
 43 44  1  0  0  0  0
 43 47  1  0  0  0  0
 43 48  1  0  0  0  0
 44 45  1  0  0  0  0
 44 46  1  0  0  0  0
 50 51  1  0  0  0  0
 55 56  1  0  0  0  0
 56 57  1  0  0  0  0
 56 61  1  0  0  0  0
 57 58  1  0  0  0  0
 58 59  1  0  0  0  0
 58 71  1  0  0  0  0
 59 60  1  0  0  0  0
 60 61  1  0  0  0  0
 63 64  1  0  0  0  0
 64 65  1  0  0  0  0
 67 68  4  0  0  0  0
 67 72  4  0  0  0  0
 68 69  4  0  0  0  0
 69 70  4  0  0  0  0
 70 71  4  0  0  0  0
 71 72  4  0  0  0  0
M  END
$$$$
