mol_ETKDG1_31
  PyMOL3.1          3D                             0

 73 79  0  0  0  0  0  0  0  0999 V2000
   -0.0569   15.3921  -12.8525 C   0  0  0  0  0  0  0  0  0  0  0  0
   -0.0924   15.1029  -11.3636 C   0  0  0  0  0  0  0  0  0  0  0  0
   -0.3296   16.2288  -10.5736 O   0  0  0  0  0  0  0  0  0  0  0  0
   -1.6833   16.6343  -10.3751 C   0  0  0  0  0  0  0  0  0  0  0  0
    1.1727   14.4988  -10.8996 C   0  0  0  0  0  0  0  0  0  0  0  0
    2.3038   15.1236  -11.1834 N   0  0  0  0  0  0  0  0  0  0  0  0
    3.4810   14.6100  -10.7995 C   0  0  0  0  0  0  0  0  0  0  0  0
    3.5439   13.3952  -10.1049 C   0  0  0  0  0  0  0  0  0  0  0  0
    2.3813   12.7484   -9.8209 C   0  0  0  0  0  0  0  0  0  0  0  0
    1.1943   13.2986  -10.2161 C   0  0  0  0  0  0  0  0  0  0  0  0
   -0.0340   12.6362   -9.8785 C   0  0  0  0  0  0  0  0  0  0  0  0
   -0.6016   11.6342  -10.6056 N   0  0  0  0  0  0  0  0  0  0  0  0
   -0.0781   11.0118  -11.8238 C   0  0  0  0  0  0  0  0  0  0  0  0
    0.4793    9.6195  -11.5115 C   0  0  0  0  0  0  0  0  0  0  0  0
   -0.8604   12.9512   -8.8079 C   0  0  0  0  0  0  0  0  0  0  0  0
   -0.7083   13.9659   -7.7272 C   0  0  0  0  0  0  0  0  0  0  0  0
   -0.0104   13.4569   -6.4400 C   0  0  0  0  0  0  0  0  0  0  0  0
   -0.6564   14.1305   -5.2215 C   0  0  0  0  0  0  0  0  0  0  0  0
    1.4915   13.8122   -6.4444 C   0  0  0  0  0  0  0  0  0  0  0  0
   -0.0454   12.0160   -6.2647 C   0  0  0  0  0  0  0  0  0  0  0  0
   -0.7408   11.4436   -5.1275 O   0  0  0  0  0  0  0  0  0  0  0  0
   -1.0049   10.0706   -5.0172 C   0  0  0  0  0  0  0  0  0  0  0  0
   -1.7426    9.7206   -3.7683 C   0  0  0  0  0  0  0  0  0  0  0  0
   -2.4275    8.4529   -3.9814 N   0  0  0  0  0  0  0  0  0  0  0  0
   -3.1098    8.0055   -2.8771 N   0  0  0  0  0  0  0  0  0  0  0  0
   -4.4668    7.8928   -2.8892 C   0  0  0  0  0  0  0  0  0  0  0  0
   -5.1676    8.1863   -4.1891 C   0  0  0  0  0  0  0  0  0  0  0  0
   -6.3427    7.3694   -4.3942 N   0  0  0  0  0  0  0  0  0  0  0  0
   -6.4145    6.3978   -5.2985 C   0  0  0  0  0  0  0  0  0  0  0  0
   -7.7707    5.7946   -5.4665 C   0  0  0  0  0  0  0  0  0  0  0  0
   -7.8528    4.2893   -5.0688 C   0  0  0  0  0  0  0  0  0  0  0  0
   -9.2416    3.7471   -5.3620 C   0  0  0  0  0  0  0  0  0  0  0  0
   -7.5409    4.1379   -3.5725 C   0  0  0  0  0  0  0  0  0  0  0  0
   -8.1847    6.0030   -6.8315 N   0  0  0  0  0  0  0  0  0  0  0  0
   -9.0854    6.9894   -7.0726 C   0  0  0  0  0  0  0  0  0  0  0  0
   -9.7019    7.1203   -8.4477 C   0  0  0  0  0  0  0  0  0  0  0  0
  -10.8101    8.1734   -8.4727 C   0  0  0  0  0  0  0  0  0  0  0  0
  -11.4790    8.1667   -9.7960 C   0  0  0  0  0  0  0  0  0  0  0  0
  -11.9089    6.7992  -10.1254 N   0  0  0  0  0  0  0  0  0  0  0  0
  -13.1723    6.3825  -10.3316 C   0  0  0  0  0  0  0  0  0  0  0  0
  -14.2390    7.2407  -10.0741 C   0  0  0  0  0  0  0  0  0  0  0  0
  -15.2129    7.8149   -9.8954 C   0  0  0  0  0  0  0  0  0  0  0  0
  -16.3871    8.5715   -9.5648 C   0  0  0  0  0  0  0  0  0  0  0  0
  -16.3734    8.8904   -8.1227 N   0  0  0  0  0  0  0  0  0  0  0  0
  -16.2838    7.6930   -7.2688 C   0  0  0  0  0  0  0  0  0  0  0  0
  -15.3732    9.9031   -7.7436 C   0  0  0  0  0  0  0  0  0  0  0  0
  -17.6281    7.7227   -9.8778 C   0  0  0  0  0  0  0  0  0  0  0  0
  -16.3880    9.8595  -10.3970 C   0  0  0  0  0  0  0  0  0  0  0  0
  -13.3967    5.2396  -10.7060 O   0  0  0  0  0  0  0  0  0  0  0  0
  -10.9021    5.7919  -10.1342 C   0  0  0  0  0  0  0  0  0  0  0  0
  -10.3495    5.7822   -8.7602 C   0  0  0  0  0  0  0  0  0  0  0  0
   -9.4265    7.7644   -6.1667 O   0  0  0  0  0  0  0  0  0  0  0  0
   -7.5614    5.1411   -7.8727 C   0  0  0  0  0  0  0  0  0  0  0  0
   -5.4483    6.0670   -5.9808 O   0  0  0  0  0  0  0  0  0  0  0  0
   -5.6179    9.6763   -4.1475 C   0  0  0  0  0  0  0  0  0  0  0  0
   -6.0601   10.1514   -5.5163 C   0  0  0  0  0  0  0  0  0  0  0  0
   -4.8222   10.3830   -6.3421 C   0  0  0  0  0  0  0  0  0  0  0  0
   -5.1712   10.9947   -7.6325 N   0  0  0  0  0  0  0  0  0  0  0  0
   -6.0490   12.2434   -7.4118 C   0  0  0  0  0  0  0  0  0  0  0  0
   -7.2584   11.8835   -6.6204 C   0  0  0  0  0  0  0  0  0  0  0  0
   -6.8397   11.3274   -5.3661 O   0  0  0  0  0  0  0  0  0  0  0  0
   -5.1143    7.6390   -1.9038 O   0  0  0  0  0  0  0  0  0  0  0  0
   -2.2898    7.7746   -1.6990 C   0  0  0  0  0  0  0  0  0  0  0  0
   -1.5412    9.0960   -1.3624 C   0  0  0  0  0  0  0  0  0  0  0  0
   -0.7894    9.5940   -2.5837 C   0  0  0  0  0  0  0  0  0  0  0  0
   -0.7149    9.1432   -5.8169 O   0  0  0  0  0  0  0  0  0  0  0  0
   -1.9287   12.0958   -8.9200 C   0  0  0  0  0  0  0  0  0  0  0  0
   -1.7438   11.2806  -10.0260 C   0  0  0  0  0  0  0  0  0  0  0  0
   -2.7337   10.3084  -10.3337 C   0  0  0  0  0  0  0  0  0  0  0  0
   -3.8493   10.2144   -9.5149 C   0  0  0  0  0  0  0  0  0  0  0  0
   -4.0202   11.0909   -8.4201 C   0  0  0  0  0  0  0  0  0  0  0  0
   -3.0081   12.0123   -8.1348 C   0  0  0  0  0  0  0  0  0  0  0  0
   -8.7099    7.4387   -9.3639 F   0  0  0  0  0  0  0  0  0  0  0  0
  1  2  1  0  0  0  0
  2  3  1  0  0  0  0
  2  5  1  0  0  0  0
  3  4  1  0  0  0  0
  5  6  4  0  0  0  0
  5 10  4  0  0  0  0
  6  7  4  0  0  0  0
  7  8  4  0  0  0  0
  8  9  4  0  0  0  0
  9 10  4  0  0  0  0
 10 11  1  0  0  0  0
 11 12  4  0  0  0  0
 11 15  4  0  0  0  0
 12 13  1  0  0  0  0
 12 68  4  0  0  0  0
 13 14  1  0  0  0  0
 15 16  1  0  0  0  0
 15 67  4  0  0  0  0
 16 17  1  0  0  0  0
 17 18  1  0  0  0  0
 17 19  1  0  0  0  0
 17 20  1  0  0  0  0
 20 21  1  0  0  0  0
 21 22  1  0  0  0  0
 22 23  1  0  0  0  0
 22 66  2  0  0  0  0
 23 24  1  0  0  0  0
 23 65  1  0  0  0  0
 24 25  1  0  0  0  0
 25 26  1  0  0  0  0
 25 63  1  0  0  0  0
 26 27  1  0  0  0  0
 26 62  2  0  0  0  0
 27 28  1  0  0  0  0
 27 55  1  0  0  0  0
 28 29  1  0  0  0  0
 29 30  1  0  0  0  0
 29 54  2  0  0  0  0
 30 31  1  0  0  0  0
 30 34  1  0  0  0  0
 31 32  1  0  0  0  0
 31 33  1  0  0  0  0
 34 35  1  0  0  0  0
 34 53  1  0  0  0  0
 35 36  1  0  0  0  0
 35 52  2  0  0  0  0
 36 37  1  0  0  0  0
 36 51  1  0  0  0  0
 36 73  1  0  0  0  0
 37 38  1  0  0  0  0
 38 39  1  0  0  0  0
 39 40  1  0  0  0  0
 39 50  1  0  0  0  0
 40 41  1  0  0  0  0
 40 49  2  0  0  0  0
 41 42  1  0  0  0  0
 42 43  1  0  0  0  0
 43 44  1  0  0  0  0
 43 47  1  0  0  0  0
 43 48  1  0  0  0  0
 44 45  1  0  0  0  0
 44 46  1  0  0  0  0
 50 51  1  0  0  0  0
 55 56  1  0  0  0  0
 56 57  1  0  0  0  0
 56 61  1  0  0  0  0
 57 58  1  0  0  0  0
 58 59  1  0  0  0  0
 58 71  1  0  0  0  0
 59 60  1  0  0  0  0
 60 61  1  0  0  0  0
 63 64  1  0  0  0  0
 64 65  1  0  0  0  0
 67 68  4  0  0  0  0
 67 72  4  0  0  0  0
 68 69  4  0  0  0  0
 69 70  4  0  0  0  0
 70 71  4  0  0  0  0
 71 72  4  0  0  0  0
M  END
$$$$
