mol_ETKDG2_65
  PyMOL3.1          3D                             0

 73 79  0  0  0  0  0  0  0  0999 V2000
   -0.0204   15.6718  -13.2118 C   0  0  0  0  0  0  0  0  0  0  0  0
   -0.2595   14.8171  -11.9834 C   0  0  0  0  0  0  0  0  0  0  0  0
   -0.8915   15.5857  -11.0044 O   0  0  0  0  0  0  0  0  0  0  0  0
   -2.3152   15.6892  -11.0890 C   0  0  0  0  0  0  0  0  0  0  0  0
    0.9983   14.2672  -11.4205 C   0  0  0  0  0  0  0  0  0  0  0  0
    2.1447   14.8286  -11.7764 N   0  0  0  0  0  0  0  0  0  0  0  0
    3.3143   14.3514  -11.3345 C   0  0  0  0  0  0  0  0  0  0  0  0
    3.3632   13.2378  -10.5026 C   0  0  0  0  0  0  0  0  0  0  0  0
    2.2006   12.6505  -10.1300 C   0  0  0  0  0  0  0  0  0  0  0  0
    1.0194   13.1731  -10.5720 C   0  0  0  0  0  0  0  0  0  0  0  0
   -0.2064   12.5715  -10.1319 C   0  0  0  0  0  0  0  0  0  0  0  0
   -0.8642   11.6054  -10.8191 N   0  0  0  0  0  0  0  0  0  0  0  0
   -0.4541   10.9635  -12.0758 C   0  0  0  0  0  0  0  0  0  0  0  0
    0.1537    9.5889  -11.7818 C   0  0  0  0  0  0  0  0  0  0  0  0
   -0.9385   12.9260   -8.9945 C   0  0  0  0  0  0  0  0  0  0  0  0
   -0.6641   13.9245   -7.9119 C   0  0  0  0  0  0  0  0  0  0  0  0
    0.0931   13.3780   -6.6636 C   0  0  0  0  0  0  0  0  0  0  0  0
   -0.4545   14.0881   -5.4194 C   0  0  0  0  0  0  0  0  0  0  0  0
    1.6012   13.7094   -6.7780 C   0  0  0  0  0  0  0  0  0  0  0  0
    0.0403   11.9536   -6.4725 C   0  0  0  0  0  0  0  0  0  0  0  0
   -0.6438   11.4157   -5.2936 O   0  0  0  0  0  0  0  0  0  0  0  0
   -0.9686   10.0525   -5.1533 C   0  0  0  0  0  0  0  0  0  0  0  0
   -1.6864    9.7374   -3.8795 C   0  0  0  0  0  0  0  0  0  0  0  0
   -2.4035    8.4828   -4.0569 N   0  0  0  0  0  0  0  0  0  0  0  0
   -3.0760    8.0573   -2.9334 N   0  0  0  0  0  0  0  0  0  0  0  0
   -4.4418    7.9701   -2.9123 C   0  0  0  0  0  0  0  0  0  0  0  0
   -5.1625    8.3101   -4.1931 C   0  0  0  0  0  0  0  0  0  0  0  0
   -6.3566    7.5091   -4.3934 N   0  0  0  0  0  0  0  0  0  0  0  0
   -6.4742    6.5673   -5.3356 C   0  0  0  0  0  0  0  0  0  0  0  0
   -7.8623    6.0185   -5.4949 C   0  0  0  0  0  0  0  0  0  0  0  0
   -7.9694    4.5014   -5.1709 C   0  0  0  0  0  0  0  0  0  0  0  0
   -9.3975    4.0207   -5.4107 C   0  0  0  0  0  0  0  0  0  0  0  0
   -7.5824    4.2582   -3.6995 C   0  0  0  0  0  0  0  0  0  0  0  0
   -8.3273    6.3318   -6.8352 N   0  0  0  0  0  0  0  0  0  0  0  0
   -9.1147    7.4401   -7.0037 C   0  0  0  0  0  0  0  0  0  0  0  0
   -9.7658    7.7114   -8.3498 C   0  0  0  0  0  0  0  0  0  0  0  0
  -10.3574    9.1105   -8.4605 C   0  0  0  0  0  0  0  0  0  0  0  0
  -10.9762    9.2659   -9.8033 C   0  0  0  0  0  0  0  0  0  0  0  0
  -11.9604    8.1940  -10.0207 N   0  0  0  0  0  0  0  0  0  0  0  0
  -13.2507    8.4253  -10.3546 C   0  0  0  0  0  0  0  0  0  0  0  0
  -13.6930    9.7386  -10.4948 C   0  0  0  0  0  0  0  0  0  0  0  0
  -14.1780   10.7743  -10.6501 C   0  0  0  0  0  0  0  0  0  0  0  0
  -14.6348   12.1251  -10.7098 C   0  0  0  0  0  0  0  0  0  0  0  0
  -15.4558   12.4113   -9.5251 N   0  0  0  0  0  0  0  0  0  0  0  0
  -14.9002   11.9151   -8.2562 C   0  0  0  0  0  0  0  0  0  0  0  0
  -16.0130   13.7434   -9.4276 C   0  0  0  0  0  0  0  0  0  0  0  0
  -13.4211   13.0916  -10.7510 C   0  0  0  0  0  0  0  0  0  0  0  0
  -15.4601   12.2611  -11.9919 C   0  0  0  0  0  0  0  0  0  0  0  0
  -14.0229    7.4964  -10.5179 O   0  0  0  0  0  0  0  0  0  0  0  0
  -11.5135    6.8234   -9.8478 C   0  0  0  0  0  0  0  0  0  0  0  0
  -10.8940    6.7015   -8.4959 C   0  0  0  0  0  0  0  0  0  0  0  0
   -9.3318    8.2025   -6.0531 O   0  0  0  0  0  0  0  0  0  0  0  0
   -7.8782    5.4443   -7.9439 C   0  0  0  0  0  0  0  0  0  0  0  0
   -5.5354    6.2204   -6.0480 O   0  0  0  0  0  0  0  0  0  0  0  0
   -5.5910    9.7959   -4.0940 C   0  0  0  0  0  0  0  0  0  0  0  0
   -6.0616   10.3118   -5.4407 C   0  0  0  0  0  0  0  0  0  0  0  0
   -4.8483   10.5502   -6.2949 C   0  0  0  0  0  0  0  0  0  0  0  0
   -5.2509   11.1673   -7.5685 N   0  0  0  0  0  0  0  0  0  0  0  0
   -6.0730   12.4362   -7.3077 C   0  0  0  0  0  0  0  0  0  0  0  0
   -7.2628   12.0989   -6.4704 C   0  0  0  0  0  0  0  0  0  0  0  0
   -6.8169   11.5066   -5.2366 O   0  0  0  0  0  0  0  0  0  0  0  0
   -5.0714    7.7220   -1.9142 O   0  0  0  0  0  0  0  0  0  0  0  0
   -2.2419    7.8242   -1.7562 C   0  0  0  0  0  0  0  0  0  0  0  0
   -1.4581    9.1327   -1.4608 C   0  0  0  0  0  0  0  0  0  0  0  0
   -0.7133    9.5926   -2.7041 C   0  0  0  0  0  0  0  0  0  0  0  0
   -0.7492    9.1175   -5.9603 O   0  0  0  0  0  0  0  0  0  0  0  0
   -2.0480   12.1250   -9.0395 C   0  0  0  0  0  0  0  0  0  0  0  0
   -1.9765   11.3071  -10.1618 C   0  0  0  0  0  0  0  0  0  0  0  0
   -3.0239   10.3828  -10.4121 C   0  0  0  0  0  0  0  0  0  0  0  0
   -4.0845   10.3380   -9.5268 C   0  0  0  0  0  0  0  0  0  0  0  0
   -4.1493   11.2157   -8.4169 C   0  0  0  0  0  0  0  0  0  0  0  0
   -3.0798   12.0876   -8.1868 C   0  0  0  0  0  0  0  0  0  0  0  0
   -8.8275    7.5870   -9.3557 F   0  0  0  0  0  0  0  0  0  0  0  0
  1  2  1  0  0  0  0
  2  3  1  0  0  0  0
  2  5  1  0  0  0  0
  3  4  1  0  0  0  0
  5  6  4  0  0  0  0
  5 10  4  0  0  0  0
  6  7  4  0  0  0  0
  7  8  4  0  0  0  0
  8  9  4  0  0  0  0
  9 10  4  0  0  0  0
 10 11  1  0  0  0  0
 11 12  4  0  0  0  0
 11 15  4  0  0  0  0
 12 13  1  0  0  0  0
 12 68  4  0  0  0  0
 13 14  1  0  0  0  0
 15 16  1  0  0  0  0
 15 67  4  0  0  0  0
 16 17  1  0  0  0  0
 17 18  1  0  0  0  0
 17 19  1  0  0  0  0
 17 20  1  0  0  0  0
 20 21  1  0  0  0  0
 21 22  1  0  0  0  0
 22 23  1  0  0  0  0
 22 66  2  0  0  0  0
 23 24  1  0  0  0  0
 23 65  1  0  0  0  0
 24 25  1  0  0  0  0
 25 26  1  0  0  0  0
 25 63  1  0  0  0  0
 26 27  1  0  0  0  0
 26 62  2  0  0  0  0
 27 28  1  0  0  0  0
 27 55  1  0  0  0  0
 28 29  1  0  0  0  0
 29 30  1  0  0  0  0
 29 54  2  0  0  0  0
 30 31  1  0  0  0  0
 30 34  1  0  0  0  0
 31 32  1  0  0  0  0
 31 33  1  0  0  0  0
 34 35  1  0  0  0  0
 34 53  1  0  0  0  0
 35 36  1  0  0  0  0
 35 52  2  0  0  0  0
 36 37  1  0  0  0  0
 36 51  1  0  0  0  0
 36 73  1  0  0  0  0
 37 38  1  0  0  0  0
 38 39  1  0  0  0  0
 39 40  1  0  0  0  0
 39 50  1  0  0  0  0
 40 41  1  0  0  0  0
 40 49  2  0  0  0  0
 41 42  1  0  0  0  0
 42 43  1  0  0  0  0
 43 44  1  0  0  0  0
 43 47  1  0  0  0  0
 43 48  1  0  0  0  0
 44 45  1  0  0  0  0
 44 46  1  0  0  0  0
 50 51  1  0  0  0  0
 55 56  1  0  0  0  0
 56 57  1  0  0  0  0
 56 61  1  0  0  0  0
 57 58  1  0  0  0  0
 58 59  1  0  0  0  0
 58 71  1  0  0  0  0
 59 60  1  0  0  0  0
 60 61  1  0  0  0  0
 63 64  1  0  0  0  0
 64 65  1  0  0  0  0
 67 68  4  0  0  0  0
 67 72  4  0  0  0  0
 68 69  4  0  0  0  0
 69 70  4  0  0  0  0
 70 71  4  0  0  0  0
 71 72  4  0  0  0  0
M  END
$$$$
