mol_ETKDG2_59
  PyMOL3.1          3D                             0

 73 79  0  0  0  0  0  0  0  0999 V2000
   -0.2109   16.4912  -11.6062 C   0  0  0  0  0  0  0  0  0  0  0  0
   -0.3138   14.9875  -11.6357 C   0  0  0  0  0  0  0  0  0  0  0  0
   -0.7045   14.4854  -12.8962 O   0  0  0  0  0  0  0  0  0  0  0  0
   -2.0955   14.3857  -13.1485 C   0  0  0  0  0  0  0  0  0  0  0  0
    0.9517   14.3251  -11.2750 C   0  0  0  0  0  0  0  0  0  0  0  0
    2.0951   14.8554  -11.6845 N   0  0  0  0  0  0  0  0  0  0  0  0
    3.2644   14.2777  -11.3920 C   0  0  0  0  0  0  0  0  0  0  0  0
    3.3137   13.1134  -10.6350 C   0  0  0  0  0  0  0  0  0  0  0  0
    2.1533   12.5620  -10.2135 C   0  0  0  0  0  0  0  0  0  0  0  0
    0.9721   13.1614  -10.5483 C   0  0  0  0  0  0  0  0  0  0  0  0
   -0.2578   12.5790  -10.1012 C   0  0  0  0  0  0  0  0  0  0  0  0
   -0.9526   11.6475  -10.8022 N   0  0  0  0  0  0  0  0  0  0  0  0
   -0.5829   11.0175  -12.0745 C   0  0  0  0  0  0  0  0  0  0  0  0
    0.0352    9.6421  -11.8059 C   0  0  0  0  0  0  0  0  0  0  0  0
   -0.9631   12.9241   -8.9538 C   0  0  0  0  0  0  0  0  0  0  0  0
   -0.6450   13.8977   -7.8638 C   0  0  0  0  0  0  0  0  0  0  0  0
    0.0914   13.3045   -6.6272 C   0  0  0  0  0  0  0  0  0  0  0  0
   -0.4135   14.0231   -5.3721 C   0  0  0  0  0  0  0  0  0  0  0  0
    1.6145   13.5601   -6.7435 C   0  0  0  0  0  0  0  0  0  0  0  0
   -0.0412   11.8972   -6.4724 C   0  0  0  0  0  0  0  0  0  0  0  0
   -0.6780   11.3606   -5.2794 O   0  0  0  0  0  0  0  0  0  0  0  0
   -0.9485    9.9921   -5.1126 C   0  0  0  0  0  0  0  0  0  0  0  0
   -1.6646    9.6797   -3.8462 C   0  0  0  0  0  0  0  0  0  0  0  0
   -2.3859    8.4362   -4.0405 N   0  0  0  0  0  0  0  0  0  0  0  0
   -3.0569    8.0029   -2.9261 N   0  0  0  0  0  0  0  0  0  0  0  0
   -4.4169    7.9206   -2.9078 C   0  0  0  0  0  0  0  0  0  0  0  0
   -5.1390    8.2817   -4.1787 C   0  0  0  0  0  0  0  0  0  0  0  0
   -6.3232    7.4715   -4.3889 N   0  0  0  0  0  0  0  0  0  0  0  0
   -6.4102    6.5169   -5.3122 C   0  0  0  0  0  0  0  0  0  0  0  0
   -7.7671    5.9197   -5.4746 C   0  0  0  0  0  0  0  0  0  0  0  0
   -7.8396    4.4109   -5.0905 C   0  0  0  0  0  0  0  0  0  0  0  0
   -9.2454    3.8822   -5.3405 C   0  0  0  0  0  0  0  0  0  0  0  0
   -7.4810    4.2325   -3.6083 C   0  0  0  0  0  0  0  0  0  0  0  0
   -8.2173    6.1353   -6.8268 N   0  0  0  0  0  0  0  0  0  0  0  0
   -9.1442    7.1055   -7.0376 C   0  0  0  0  0  0  0  0  0  0  0  0
   -9.8265    7.1990   -8.3796 C   0  0  0  0  0  0  0  0  0  0  0  0
  -10.8205    8.3431   -8.4504 C   0  0  0  0  0  0  0  0  0  0  0  0
  -11.5456    8.2846   -9.7439 C   0  0  0  0  0  0  0  0  0  0  0  0
  -12.1260    6.9430   -9.9207 N   0  0  0  0  0  0  0  0  0  0  0  0
  -13.4358    6.6810  -10.0732 C   0  0  0  0  0  0  0  0  0  0  0  0
  -14.3385    7.7233  -10.0322 C   0  0  0  0  0  0  0  0  0  0  0  0
  -15.1914    8.4951  -10.0340 C   0  0  0  0  0  0  0  0  0  0  0  0
  -16.1772    9.5007   -9.9524 C   0  0  0  0  0  0  0  0  0  0  0  0
  -16.3323    9.9922   -8.5971 N   0  0  0  0  0  0  0  0  0  0  0  0
  -15.3001    9.7489   -7.6325 C   0  0  0  0  0  0  0  0  0  0  0  0
  -17.1839   11.1106   -8.3642 C   0  0  0  0  0  0  0  0  0  0  0  0
  -17.5036    8.8992  -10.3933 C   0  0  0  0  0  0  0  0  0  0  0  0
  -15.7677   10.6522  -10.8874 C   0  0  0  0  0  0  0  0  0  0  0  0
  -13.8342    5.5350  -10.2290 O   0  0  0  0  0  0  0  0  0  0  0  0
  -11.2402    5.8239   -9.8508 C   0  0  0  0  0  0  0  0  0  0  0  0
  -10.5971    5.8978   -8.5275 C   0  0  0  0  0  0  0  0  0  0  0  0
   -9.4590    7.8770   -6.1276 O   0  0  0  0  0  0  0  0  0  0  0  0
   -7.6229    5.2761   -7.8918 C   0  0  0  0  0  0  0  0  0  0  0  0
   -5.4539    6.1909   -6.0078 O   0  0  0  0  0  0  0  0  0  0  0  0
   -5.5696    9.7604   -4.0395 C   0  0  0  0  0  0  0  0  0  0  0  0
   -6.0523   10.3229   -5.3537 C   0  0  0  0  0  0  0  0  0  0  0  0
   -4.8643   10.5494   -6.2373 C   0  0  0  0  0  0  0  0  0  0  0  0
   -5.2810   11.2274   -7.4727 N   0  0  0  0  0  0  0  0  0  0  0  0
   -6.0546   12.5103   -7.1407 C   0  0  0  0  0  0  0  0  0  0  0  0
   -7.2203   12.1869   -6.2751 C   0  0  0  0  0  0  0  0  0  0  0  0
   -6.7571   11.5387   -5.0874 O   0  0  0  0  0  0  0  0  0  0  0  0
   -5.0422    7.6611   -1.9134 O   0  0  0  0  0  0  0  0  0  0  0  0
   -2.2265    7.7511   -1.7534 C   0  0  0  0  0  0  0  0  0  0  0  0
   -1.4417    9.0512   -1.4385 C   0  0  0  0  0  0  0  0  0  0  0  0
   -0.6982    9.5255   -2.6728 C   0  0  0  0  0  0  0  0  0  0  0  0
   -0.6799    9.0405   -5.8889 O   0  0  0  0  0  0  0  0  0  0  0  0
   -2.0895   12.1520   -8.9945 C   0  0  0  0  0  0  0  0  0  0  0  0
   -2.0594   11.3631  -10.1332 C   0  0  0  0  0  0  0  0  0  0  0  0
   -3.1324   10.4704  -10.3837 C   0  0  0  0  0  0  0  0  0  0  0  0
   -4.1757   10.4310   -9.4818 C   0  0  0  0  0  0  0  0  0  0  0  0
   -4.1982   11.2777   -8.3486 C   0  0  0  0  0  0  0  0  0  0  0  0
   -3.1011   12.1146   -8.1242 C   0  0  0  0  0  0  0  0  0  0  0  0
   -8.8863    7.3709   -9.3833 F   0  0  0  0  0  0  0  0  0  0  0  0
  1  2  1  0  0  0  0
  2  3  1  0  0  0  0
  2  5  1  0  0  0  0
  3  4  1  0  0  0  0
  5  6  4  0  0  0  0
  5 10  4  0  0  0  0
  6  7  4  0  0  0  0
  7  8  4  0  0  0  0
  8  9  4  0  0  0  0
  9 10  4  0  0  0  0
 10 11  1  0  0  0  0
 11 12  4  0  0  0  0
 11 15  4  0  0  0  0
 12 13  1  0  0  0  0
 12 68  4  0  0  0  0
 13 14  1  0  0  0  0
 15 16  1  0  0  0  0
 15 67  4  0  0  0  0
 16 17  1  0  0  0  0
 17 18  1  0  0  0  0
 17 19  1  0  0  0  0
 17 20  1  0  0  0  0
 20 21  1  0  0  0  0
 21 22  1  0  0  0  0
 22 23  1  0  0  0  0
 22 66  2  0  0  0  0
 23 24  1  0  0  0  0
 23 65  1  0  0  0  0
 24 25  1  0  0  0  0
 25 26  1  0  0  0  0
 25 63  1  0  0  0  0
 26 27  1  0  0  0  0
 26 62  2  0  0  0  0
 27 28  1  0  0  0  0
 27 55  1  0  0  0  0
 28 29  1  0  0  0  0
 29 30  1  0  0  0  0
 29 54  2  0  0  0  0
 30 31  1  0  0  0  0
 30 34  1  0  0  0  0
 31 32  1  0  0  0  0
 31 33  1  0  0  0  0
 34 35  1  0  0  0  0
 34 53  1  0  0  0  0
 35 36  1  0  0  0  0
 35 52  2  0  0  0  0
 36 37  1  0  0  0  0
 36 51  1  0  0  0  0
 36 73  1  0  0  0  0
 37 38  1  0  0  0  0
 38 39  1  0  0  0  0
 39 40  1  0  0  0  0
 39 50  1  0  0  0  0
 40 41  1  0  0  0  0
 40 49  2  0  0  0  0
 41 42  1  0  0  0  0
 42 43  1  0  0  0  0
 43 44  1  0  0  0  0
 43 47  1  0  0  0  0
 43 48  1  0  0  0  0
 44 45  1  0  0  0  0
 44 46  1  0  0  0  0
 50 51  1  0  0  0  0
 55 56  1  0  0  0  0
 56 57  1  0  0  0  0
 56 61  1  0  0  0  0
 57 58  1  0  0  0  0
 58 59  1  0  0  0  0
 58 71  1  0  0  0  0
 59 60  1  0  0  0  0
 60 61  1  0  0  0  0
 63 64  1  0  0  0  0
 64 65  1  0  0  0  0
 67 68  4  0  0  0  0
 67 72  4  0  0  0  0
 68 69  4  0  0  0  0
 69 70  4  0  0  0  0
 70 71  4  0  0  0  0
 71 72  4  0  0  0  0
M  END
$$$$
