mol_ETKDG4_109
  PyMOL3.1          3D                             0

 73 79  0  0  0  0  0  0  0  0999 V2000
   -0.4098   16.2145  -11.6372 C   0  0  0  0  0  0  0  0  0  0  0  0
   -0.2613   14.7187  -11.8159 C   0  0  0  0  0  0  0  0  0  0  0  0
   -0.3203   14.2790  -13.1583 O   0  0  0  0  0  0  0  0  0  0  0  0
   -1.5941   14.1154  -13.7426 C   0  0  0  0  0  0  0  0  0  0  0  0
    1.0131   14.2218  -11.2648 C   0  0  0  0  0  0  0  0  0  0  0  0
    2.1392   14.8112  -11.6355 N   0  0  0  0  0  0  0  0  0  0  0  0
    3.3232   14.3545  -11.1720 C   0  0  0  0  0  0  0  0  0  0  0  0
    3.3858   13.2849  -10.2932 C   0  0  0  0  0  0  0  0  0  0  0  0
    2.2210   12.6841   -9.9146 C   0  0  0  0  0  0  0  0  0  0  0  0
    1.0383   13.1436  -10.4109 C   0  0  0  0  0  0  0  0  0  0  0  0
   -0.1852   12.5188  -10.0013 C   0  0  0  0  0  0  0  0  0  0  0  0
   -0.8010   11.5110  -10.6795 N   0  0  0  0  0  0  0  0  0  0  0  0
   -0.3381   10.8248  -11.8932 C   0  0  0  0  0  0  0  0  0  0  0  0
    0.3363    9.4941  -11.5260 C   0  0  0  0  0  0  0  0  0  0  0  0
   -0.9608   12.8964   -8.9119 C   0  0  0  0  0  0  0  0  0  0  0  0
   -0.7399   13.9521   -7.8768 C   0  0  0  0  0  0  0  0  0  0  0  0
   -0.0595   13.4816   -6.5580 C   0  0  0  0  0  0  0  0  0  0  0  0
   -0.7670   14.1497   -5.3816 C   0  0  0  0  0  0  0  0  0  0  0  0
    1.4161   13.9217   -6.5579 C   0  0  0  0  0  0  0  0  0  0  0  0
   -0.0305   12.0429   -6.3486 C   0  0  0  0  0  0  0  0  0  0  0  0
   -0.7157   11.4908   -5.1856 O   0  0  0  0  0  0  0  0  0  0  0  0
   -0.9700   10.1140   -5.0451 C   0  0  0  0  0  0  0  0  0  0  0  0
   -1.6905    9.7806   -3.7778 C   0  0  0  0  0  0  0  0  0  0  0  0
   -2.3819    8.5141   -3.9756 N   0  0  0  0  0  0  0  0  0  0  0  0
   -3.0629    8.0743   -2.8592 N   0  0  0  0  0  0  0  0  0  0  0  0
   -4.4273    7.9869   -2.8561 C   0  0  0  0  0  0  0  0  0  0  0  0
   -5.1447    8.3084   -4.1336 C   0  0  0  0  0  0  0  0  0  0  0  0
   -6.3202    7.4965   -4.3416 N   0  0  0  0  0  0  0  0  0  0  0  0
   -6.4000    6.5325   -5.2709 C   0  0  0  0  0  0  0  0  0  0  0  0
   -7.7725    5.9658   -5.4450 C   0  0  0  0  0  0  0  0  0  0  0  0
   -7.8683    4.4492   -5.0894 C   0  0  0  0  0  0  0  0  0  0  0  0
   -9.2741    3.9389   -5.3671 C   0  0  0  0  0  0  0  0  0  0  0  0
   -7.5349    4.2378   -3.6063 C   0  0  0  0  0  0  0  0  0  0  0  0
   -8.1796    6.2098   -6.8067 N   0  0  0  0  0  0  0  0  0  0  0  0
   -9.0860    7.1981   -7.0446 C   0  0  0  0  0  0  0  0  0  0  0  0
   -9.6640    7.3429   -8.4269 C   0  0  0  0  0  0  0  0  0  0  0  0
  -10.6834    8.4608   -8.5956 C   0  0  0  0  0  0  0  0  0  0  0  0
  -11.1908    8.4431   -9.9886 C   0  0  0  0  0  0  0  0  0  0  0  0
  -11.6292    7.0856  -10.3756 N   0  0  0  0  0  0  0  0  0  0  0  0
  -12.7661    6.7836  -10.9852 C   0  0  0  0  0  0  0  0  0  0  0  0
  -13.6804    7.7920  -11.2655 C   0  0  0  0  0  0  0  0  0  0  0  0
  -14.5029    8.5117  -11.5998 C   0  0  0  0  0  0  0  0  0  0  0  0
  -15.4961    9.4712  -11.9494 C   0  0  0  0  0  0  0  0  0  0  0  0
  -15.0724   10.8088  -11.5026 N   0  0  0  0  0  0  0  0  0  0  0  0
  -14.8056   10.8964  -10.0515 C   0  0  0  0  0  0  0  0  0  0  0  0
  -13.9843   11.3867  -12.2928 C   0  0  0  0  0  0  0  0  0  0  0  0
  -16.8129    9.1060  -11.2623 C   0  0  0  0  0  0  0  0  0  0  0  0
  -15.6652    9.4526  -13.4693 C   0  0  0  0  0  0  0  0  0  0  0  0
  -13.0098    5.6251  -11.2945 O   0  0  0  0  0  0  0  0  0  0  0  0
  -10.7631    5.9736  -10.1100 C   0  0  0  0  0  0  0  0  0  0  0  0
  -10.3772    6.0435   -8.7125 C   0  0  0  0  0  0  0  0  0  0  0  0
   -9.4494    7.9494   -6.1351 O   0  0  0  0  0  0  0  0  0  0  0  0
   -7.5409    5.3730   -7.8657 C   0  0  0  0  0  0  0  0  0  0  0  0
   -5.4368    6.1963   -5.9459 O   0  0  0  0  0  0  0  0  0  0  0  0
   -5.6072    9.7929   -4.0523 C   0  0  0  0  0  0  0  0  0  0  0  0
   -6.0785   10.2714   -5.4052 C   0  0  0  0  0  0  0  0  0  0  0  0
   -4.8611   10.5259   -6.2462 C   0  0  0  0  0  0  0  0  0  0  0  0
   -5.2599   11.0859   -7.5421 N   0  0  0  0  0  0  0  0  0  0  0  0
   -6.1133   12.3451   -7.3293 C   0  0  0  0  0  0  0  0  0  0  0  0
   -7.3059   12.0034   -6.5145 C   0  0  0  0  0  0  0  0  0  0  0  0
   -6.8727   11.4495   -5.2500 O   0  0  0  0  0  0  0  0  0  0  0  0
   -5.0610    7.7281   -1.8529 O   0  0  0  0  0  0  0  0  0  0  0  0
   -2.2252    7.8410   -1.6864 C   0  0  0  0  0  0  0  0  0  0  0  0
   -1.4543    9.1558   -1.3722 C   0  0  0  0  0  0  0  0  0  0  0  0
   -0.7199    9.6494   -2.6048 C   0  0  0  0  0  0  0  0  0  0  0  0
   -0.6915    9.1759   -5.8348 O   0  0  0  0  0  0  0  0  0  0  0  0
   -2.0453   12.0680   -8.9579 C   0  0  0  0  0  0  0  0  0  0  0  0
   -1.9248   11.2087  -10.0477 C   0  0  0  0  0  0  0  0  0  0  0  0
   -2.9442   10.2537  -10.2977 C   0  0  0  0  0  0  0  0  0  0  0  0
   -4.0324   10.2128   -9.4392 C   0  0  0  0  0  0  0  0  0  0  0  0
   -4.1389   11.1247   -8.3699 C   0  0  0  0  0  0  0  0  0  0  0  0
   -3.0965   12.0355   -8.1371 C   0  0  0  0  0  0  0  0  0  0  0  0
   -8.6266    7.5880   -9.3160 F   0  0  0  0  0  0  0  0  0  0  0  0
  1  2  1  0  0  0  0
  2  3  1  0  0  0  0
  2  5  1  0  0  0  0
  3  4  1  0  0  0  0
  5  6  4  0  0  0  0
  5 10  4  0  0  0  0
  6  7  4  0  0  0  0
  7  8  4  0  0  0  0
  8  9  4  0  0  0  0
  9 10  4  0  0  0  0
 10 11  1  0  0  0  0
 11 12  4  0  0  0  0
 11 15  4  0  0  0  0
 12 13  1  0  0  0  0
 12 68  4  0  0  0  0
 13 14  1  0  0  0  0
 15 16  1  0  0  0  0
 15 67  4  0  0  0  0
 16 17  1  0  0  0  0
 17 18  1  0  0  0  0
 17 19  1  0  0  0  0
 17 20  1  0  0  0  0
 20 21  1  0  0  0  0
 21 22  1  0  0  0  0
 22 23  1  0  0  0  0
 22 66  2  0  0  0  0
 23 24  1  0  0  0  0
 23 65  1  0  0  0  0
 24 25  1  0  0  0  0
 25 26  1  0  0  0  0
 25 63  1  0  0  0  0
 26 27  1  0  0  0  0
 26 62  2  0  0  0  0
 27 28  1  0  0  0  0
 27 55  1  0  0  0  0
 28 29  1  0  0  0  0
 29 30  1  0  0  0  0
 29 54  2  0  0  0  0
 30 31  1  0  0  0  0
 30 34  1  0  0  0  0
 31 32  1  0  0  0  0
 31 33  1  0  0  0  0
 34 35  1  0  0  0  0
 34 53  1  0  0  0  0
 35 36  1  0  0  0  0
 35 52  2  0  0  0  0
 36 37  1  0  0  0  0
 36 51  1  0  0  0  0
 36 73  1  0  0  0  0
 37 38  1  0  0  0  0
 38 39  1  0  0  0  0
 39 40  1  0  0  0  0
 39 50  1  0  0  0  0
 40 41  1  0  0  0  0
 40 49  2  0  0  0  0
 41 42  1  0  0  0  0
 42 43  1  0  0  0  0
 43 44  1  0  0  0  0
 43 47  1  0  0  0  0
 43 48  1  0  0  0  0
 44 45  1  0  0  0  0
 44 46  1  0  0  0  0
 50 51  1  0  0  0  0
 55 56  1  0  0  0  0
 56 57  1  0  0  0  0
 56 61  1  0  0  0  0
 57 58  1  0  0  0  0
 58 59  1  0  0  0  0
 58 71  1  0  0  0  0
 59 60  1  0  0  0  0
 60 61  1  0  0  0  0
 63 64  1  0  0  0  0
 64 65  1  0  0  0  0
 67 68  4  0  0  0  0
 67 72  4  0  0  0  0
 68 69  4  0  0  0  0
 69 70  4  0  0  0  0
 70 71  4  0  0  0  0
 71 72  4  0  0  0  0
M  END
$$$$
