mol_ETKDG3_82
  PyMOL3.1          3D                             0

 73 79  0  0  0  0  0  0  0  0999 V2000
   -0.0190   15.1372  -13.1982 C   0  0  0  0  0  0  0  0  0  0  0  0
   -0.1607   14.7872  -11.7328 C   0  0  0  0  0  0  0  0  0  0  0  0
   -0.4902   15.8664  -10.9219 O   0  0  0  0  0  0  0  0  0  0  0  0
   -1.8704   16.2199  -10.8059 C   0  0  0  0  0  0  0  0  0  0  0  0
    1.0799   14.1931  -11.1953 C   0  0  0  0  0  0  0  0  0  0  0  0
    2.2434   14.7405  -11.5127 N   0  0  0  0  0  0  0  0  0  0  0  0
    3.3967   14.2082  -11.0572 C   0  0  0  0  0  0  0  0  0  0  0  0
    3.3962   13.0607  -10.2607 C   0  0  0  0  0  0  0  0  0  0  0  0
    2.1986   12.4980   -9.9427 C   0  0  0  0  0  0  0  0  0  0  0  0
    1.0478   13.0695  -10.4063 C   0  0  0  0  0  0  0  0  0  0  0  0
   -0.2102   12.4952  -10.0317 C   0  0  0  0  0  0  0  0  0  0  0  0
   -0.8565   11.5373  -10.7463 N   0  0  0  0  0  0  0  0  0  0  0  0
   -0.4183   10.8912  -11.9927 C   0  0  0  0  0  0  0  0  0  0  0  0
    0.1405    9.5004  -11.6903 C   0  0  0  0  0  0  0  0  0  0  0  0
   -0.9749   12.8642   -8.9409 C   0  0  0  0  0  0  0  0  0  0  0  0
   -0.7432   13.8897   -7.8674 C   0  0  0  0  0  0  0  0  0  0  0  0
   -0.0381   13.3701   -6.5834 C   0  0  0  0  0  0  0  0  0  0  0  0
   -0.6709   14.0678   -5.3725 C   0  0  0  0  0  0  0  0  0  0  0  0
    1.4564   13.7536   -6.6258 C   0  0  0  0  0  0  0  0  0  0  0  0
   -0.0683   11.9499   -6.4042 C   0  0  0  0  0  0  0  0  0  0  0  0
   -0.7236   11.4020   -5.2297 O   0  0  0  0  0  0  0  0  0  0  0  0
   -1.0107   10.0357   -5.1047 C   0  0  0  0  0  0  0  0  0  0  0  0
   -1.7232    9.7120   -3.8409 C   0  0  0  0  0  0  0  0  0  0  0  0
   -2.4368    8.4551   -4.0363 N   0  0  0  0  0  0  0  0  0  0  0  0
   -3.1094    8.0200   -2.9252 N   0  0  0  0  0  0  0  0  0  0  0  0
   -4.4672    7.9240   -2.9238 C   0  0  0  0  0  0  0  0  0  0  0  0
   -5.1856    8.2532   -4.2120 C   0  0  0  0  0  0  0  0  0  0  0  0
   -6.3578    7.4198   -4.4197 N   0  0  0  0  0  0  0  0  0  0  0  0
   -6.4369    6.4553   -5.3521 C   0  0  0  0  0  0  0  0  0  0  0  0
   -7.7895    5.8325   -5.4735 C   0  0  0  0  0  0  0  0  0  0  0  0
   -7.8319    4.3307   -5.0445 C   0  0  0  0  0  0  0  0  0  0  0  0
   -9.2377    3.7661   -5.2382 C   0  0  0  0  0  0  0  0  0  0  0  0
   -7.4355    4.1958   -3.5679 C   0  0  0  0  0  0  0  0  0  0  0  0
   -8.2694    5.9712   -6.8242 N   0  0  0  0  0  0  0  0  0  0  0  0
   -9.2594    6.8727   -7.0454 C   0  0  0  0  0  0  0  0  0  0  0  0
  -10.0112    6.8220   -8.3562 C   0  0  0  0  0  0  0  0  0  0  0  0
  -11.0582    7.9163   -8.5159 C   0  0  0  0  0  0  0  0  0  0  0  0
  -11.8269    7.6801   -9.7739 C   0  0  0  0  0  0  0  0  0  0  0  0
  -12.3524    6.2979   -9.7849 N   0  0  0  0  0  0  0  0  0  0  0  0
  -13.6562    5.9609   -9.9060 C   0  0  0  0  0  0  0  0  0  0  0  0
  -14.6120    6.9416  -10.1236 C   0  0  0  0  0  0  0  0  0  0  0  0
  -15.4969    7.6254  -10.3444 C   0  0  0  0  0  0  0  0  0  0  0  0
  -16.5565    8.5651  -10.5562 C   0  0  0  0  0  0  0  0  0  0  0  0
  -16.3962    9.7002   -9.6314 N   0  0  0  0  0  0  0  0  0  0  0  0
  -16.4004    9.3055   -8.2067 C   0  0  0  0  0  0  0  0  0  0  0  0
  -15.2350   10.5656   -9.9508 C   0  0  0  0  0  0  0  0  0  0  0  0
  -17.8965    7.8587  -10.3083 C   0  0  0  0  0  0  0  0  0  0  0  0
  -16.4879    9.0594  -12.0099 C   0  0  0  0  0  0  0  0  0  0  0  0
  -13.9999    4.7879   -9.8390 O   0  0  0  0  0  0  0  0  0  0  0  0
  -11.4264    5.2330   -9.6159 C   0  0  0  0  0  0  0  0  0  0  0  0
  -10.7300    5.4781   -8.3382 C   0  0  0  0  0  0  0  0  0  0  0  0
   -9.5930    7.6782   -6.1657 O   0  0  0  0  0  0  0  0  0  0  0  0
   -7.6532    5.0947   -7.8640 C   0  0  0  0  0  0  0  0  0  0  0  0
   -5.4798    6.1450   -6.0514 O   0  0  0  0  0  0  0  0  0  0  0  0
   -5.6395    9.7301   -4.1188 C   0  0  0  0  0  0  0  0  0  0  0  0
   -6.1306   10.2397   -5.4538 C   0  0  0  0  0  0  0  0  0  0  0  0
   -4.9281   10.4591   -6.3325 C   0  0  0  0  0  0  0  0  0  0  0  0
   -5.3285   11.0958   -7.5995 N   0  0  0  0  0  0  0  0  0  0  0  0
   -6.1423   12.3693   -7.3230 C   0  0  0  0  0  0  0  0  0  0  0  0
   -7.3230   12.0494   -6.4830 C   0  0  0  0  0  0  0  0  0  0  0  0
   -6.8700   11.4417   -5.2464 O   0  0  0  0  0  0  0  0  0  0  0  0
   -5.1029    7.6685   -1.9275 O   0  0  0  0  0  0  0  0  0  0  0  0
   -2.2765    7.7840   -1.7504 C   0  0  0  0  0  0  0  0  0  0  0  0
   -1.4918    9.0916   -1.4371 C   0  0  0  0  0  0  0  0  0  0  0  0
   -0.7518    9.5607   -2.6724 C   0  0  0  0  0  0  0  0  0  0  0  0
   -0.7644    9.0895   -5.9046 O   0  0  0  0  0  0  0  0  0  0  0  0
   -2.0913   12.0666   -9.0142 C   0  0  0  0  0  0  0  0  0  0  0  0
   -1.9955   11.2445  -10.1291 C   0  0  0  0  0  0  0  0  0  0  0  0
   -3.0463   10.3206  -10.4088 C   0  0  0  0  0  0  0  0  0  0  0  0
   -4.1263   10.2816   -9.5468 C   0  0  0  0  0  0  0  0  0  0  0  0
   -4.2055   11.1526   -8.4393 C   0  0  0  0  0  0  0  0  0  0  0  0
   -3.1460   12.0262   -8.1848 C   0  0  0  0  0  0  0  0  0  0  0  0
   -9.1234    6.9192   -9.4204 F   0  0  0  0  0  0  0  0  0  0  0  0
  1  2  1  0  0  0  0
  2  3  1  0  0  0  0
  2  5  1  0  0  0  0
  3  4  1  0  0  0  0
  5  6  4  0  0  0  0
  5 10  4  0  0  0  0
  6  7  4  0  0  0  0
  7  8  4  0  0  0  0
  8  9  4  0  0  0  0
  9 10  4  0  0  0  0
 10 11  1  0  0  0  0
 11 12  4  0  0  0  0
 11 15  4  0  0  0  0
 12 13  1  0  0  0  0
 12 68  4  0  0  0  0
 13 14  1  0  0  0  0
 15 16  1  0  0  0  0
 15 67  4  0  0  0  0
 16 17  1  0  0  0  0
 17 18  1  0  0  0  0
 17 19  1  0  0  0  0
 17 20  1  0  0  0  0
 20 21  1  0  0  0  0
 21 22  1  0  0  0  0
 22 23  1  0  0  0  0
 22 66  2  0  0  0  0
 23 24  1  0  0  0  0
 23 65  1  0  0  0  0
 24 25  1  0  0  0  0
 25 26  1  0  0  0  0
 25 63  1  0  0  0  0
 26 27  1  0  0  0  0
 26 62  2  0  0  0  0
 27 28  1  0  0  0  0
 27 55  1  0  0  0  0
 28 29  1  0  0  0  0
 29 30  1  0  0  0  0
 29 54  2  0  0  0  0
 30 31  1  0  0  0  0
 30 34  1  0  0  0  0
 31 32  1  0  0  0  0
 31 33  1  0  0  0  0
 34 35  1  0  0  0  0
 34 53  1  0  0  0  0
 35 36  1  0  0  0  0
 35 52  2  0  0  0  0
 36 37  1  0  0  0  0
 36 51  1  0  0  0  0
 36 73  1  0  0  0  0
 37 38  1  0  0  0  0
 38 39  1  0  0  0  0
 39 40  1  0  0  0  0
 39 50  1  0  0  0  0
 40 41  1  0  0  0  0
 40 49  2  0  0  0  0
 41 42  1  0  0  0  0
 42 43  1  0  0  0  0
 43 44  1  0  0  0  0
 43 47  1  0  0  0  0
 43 48  1  0  0  0  0
 44 45  1  0  0  0  0
 44 46  1  0  0  0  0
 50 51  1  0  0  0  0
 55 56  1  0  0  0  0
 56 57  1  0  0  0  0
 56 61  1  0  0  0  0
 57 58  1  0  0  0  0
 58 59  1  0  0  0  0
 58 71  1  0  0  0  0
 59 60  1  0  0  0  0
 60 61  1  0  0  0  0
 63 64  1  0  0  0  0
 64 65  1  0  0  0  0
 67 68  4  0  0  0  0
 67 72  4  0  0  0  0
 68 69  4  0  0  0  0
 69 70  4  0  0  0  0
 70 71  4  0  0  0  0
 71 72  4  0  0  0  0
M  END
$$$$
