mol_ETKDG2_74
  PyMOL3.1          3D                             0

 73 79  0  0  0  0  0  0  0  0999 V2000
    0.3070   15.4330  -13.2470 C   0  0  0  0  0  0  0  0  0  0  0  0
    0.0136   14.6006  -12.0169 C   0  0  0  0  0  0  0  0  0  0  0  0
   -0.7702   15.3436  -11.1311 O   0  0  0  0  0  0  0  0  0  0  0  0
   -2.1843   15.3135  -11.3537 C   0  0  0  0  0  0  0  0  0  0  0  0
    1.2532   14.1753  -11.3159 C   0  0  0  0  0  0  0  0  0  0  0  0
    2.3973   14.7636  -11.6293 N   0  0  0  0  0  0  0  0  0  0  0  0
    3.5460   14.3904  -11.0543 C   0  0  0  0  0  0  0  0  0  0  0  0
    3.5765   13.3614  -10.1230 C   0  0  0  0  0  0  0  0  0  0  0  0
    2.4144   12.7495   -9.7951 C   0  0  0  0  0  0  0  0  0  0  0  0
    1.2537   13.1616  -10.3785 C   0  0  0  0  0  0  0  0  0  0  0  0
    0.0221   12.5360   -9.9920 C   0  0  0  0  0  0  0  0  0  0  0  0
   -0.5651   11.5244  -10.6786 N   0  0  0  0  0  0  0  0  0  0  0  0
   -0.0540   10.8315  -11.8683 C   0  0  0  0  0  0  0  0  0  0  0  0
    0.5145    9.4697  -11.4608 C   0  0  0  0  0  0  0  0  0  0  0  0
   -0.7903   12.9088   -8.9209 C   0  0  0  0  0  0  0  0  0  0  0  0
   -0.6090   13.9572   -7.8741 C   0  0  0  0  0  0  0  0  0  0  0  0
    0.0280   13.4666   -6.5378 C   0  0  0  0  0  0  0  0  0  0  0  0
   -0.7150   14.1336   -5.3793 C   0  0  0  0  0  0  0  0  0  0  0  0
    1.5134   13.8999   -6.4832 C   0  0  0  0  0  0  0  0  0  0  0  0
    0.0424   12.0476   -6.3515 C   0  0  0  0  0  0  0  0  0  0  0  0
   -0.6404   11.4804   -5.1931 O   0  0  0  0  0  0  0  0  0  0  0  0
   -0.9218   10.1043   -5.0723 C   0  0  0  0  0  0  0  0  0  0  0  0
   -1.6471    9.7622   -3.8133 C   0  0  0  0  0  0  0  0  0  0  0  0
   -2.3486    8.5013   -4.0200 N   0  0  0  0  0  0  0  0  0  0  0  0
   -3.0283    8.0608   -2.9076 N   0  0  0  0  0  0  0  0  0  0  0  0
   -4.3936    7.9804   -2.8986 C   0  0  0  0  0  0  0  0  0  0  0  0
   -5.1048    8.3021   -4.1861 C   0  0  0  0  0  0  0  0  0  0  0  0
   -6.2952    7.4994   -4.3619 N   0  0  0  0  0  0  0  0  0  0  0  0
   -6.4023    6.5252   -5.2666 C   0  0  0  0  0  0  0  0  0  0  0  0
   -7.7815    5.9659   -5.4091 C   0  0  0  0  0  0  0  0  0  0  0  0
   -7.8971    4.4567   -5.0601 C   0  0  0  0  0  0  0  0  0  0  0  0
   -9.3295    3.9807   -5.2862 C   0  0  0  0  0  0  0  0  0  0  0  0
   -7.5079    4.2346   -3.5889 C   0  0  0  0  0  0  0  0  0  0  0  0
   -8.2286    6.2498   -6.7500 N   0  0  0  0  0  0  0  0  0  0  0  0
   -9.0289    7.3346   -6.9315 C   0  0  0  0  0  0  0  0  0  0  0  0
   -9.6597    7.5634   -8.2759 C   0  0  0  0  0  0  0  0  0  0  0  0
  -10.4262    8.8708   -8.3585 C   0  0  0  0  0  0  0  0  0  0  0  0
  -11.0531    8.9670   -9.6890 C   0  0  0  0  0  0  0  0  0  0  0  0
  -11.8654    7.7641   -9.9354 N   0  0  0  0  0  0  0  0  0  0  0  0
  -13.1676    7.7863  -10.2440 C   0  0  0  0  0  0  0  0  0  0  0  0
  -13.7822    9.0035  -10.3814 C   0  0  0  0  0  0  0  0  0  0  0  0
  -14.4204    9.9209  -10.5310 C   0  0  0  0  0  0  0  0  0  0  0  0
  -15.1211   11.1615  -10.6320 C   0  0  0  0  0  0  0  0  0  0  0  0
  -16.1278   11.2033   -9.5469 N   0  0  0  0  0  0  0  0  0  0  0  0
  -15.5024   11.1933   -8.1933 C   0  0  0  0  0  0  0  0  0  0  0  0
  -17.1602   10.1397   -9.6717 C   0  0  0  0  0  0  0  0  0  0  0  0
  -14.1380   12.3399  -10.4794 C   0  0  0  0  0  0  0  0  0  0  0  0
  -15.7721   11.1916  -12.0109 C   0  0  0  0  0  0  0  0  0  0  0  0
  -13.7961    6.7548  -10.3961 O   0  0  0  0  0  0  0  0  0  0  0  0
  -11.2288    6.4793   -9.8128 C   0  0  0  0  0  0  0  0  0  0  0  0
  -10.6415    6.4224   -8.4626 C   0  0  0  0  0  0  0  0  0  0  0  0
   -9.2683    8.1082   -5.9996 O   0  0  0  0  0  0  0  0  0  0  0  0
   -7.7392    5.3545   -7.8338 C   0  0  0  0  0  0  0  0  0  0  0  0
   -5.4602    6.1666   -5.9670 O   0  0  0  0  0  0  0  0  0  0  0  0
   -5.5312    9.7907   -4.1418 C   0  0  0  0  0  0  0  0  0  0  0  0
   -5.9747   10.2558   -5.5199 C   0  0  0  0  0  0  0  0  0  0  0  0
   -4.7449   10.4941   -6.3446 C   0  0  0  0  0  0  0  0  0  0  0  0
   -5.1120   11.0627   -7.6517 N   0  0  0  0  0  0  0  0  0  0  0  0
   -5.9756   12.3172   -7.4524 C   0  0  0  0  0  0  0  0  0  0  0  0
   -7.1880   11.9687   -6.6519 C   0  0  0  0  0  0  0  0  0  0  0  0
   -6.7625   11.4368   -5.3812 O   0  0  0  0  0  0  0  0  0  0  0  0
   -5.0302    7.7356   -1.9028 O   0  0  0  0  0  0  0  0  0  0  0  0
   -2.1990    7.8155   -1.7299 C   0  0  0  0  0  0  0  0  0  0  0  0
   -1.4312    9.1233   -1.4060 C   0  0  0  0  0  0  0  0  0  0  0  0
   -0.6834    9.6107   -2.6346 C   0  0  0  0  0  0  0  0  0  0  0  0
   -0.6520    9.1842   -5.8746 O   0  0  0  0  0  0  0  0  0  0  0  0
   -1.8708   12.0729   -8.9969 C   0  0  0  0  0  0  0  0  0  0  0  0
   -1.7092   11.2177  -10.0794 C   0  0  0  0  0  0  0  0  0  0  0  0
   -2.7168   10.2534  -10.3530 C   0  0  0  0  0  0  0  0  0  0  0  0
   -3.8217   10.2086   -9.5271 C   0  0  0  0  0  0  0  0  0  0  0  0
   -3.9720   11.1201   -8.4503 C   0  0  0  0  0  0  0  0  0  0  0  0
   -2.9449   12.0319   -8.2040 C   0  0  0  0  0  0  0  0  0  0  0  0
   -8.6804    7.5885   -9.2506 F   0  0  0  0  0  0  0  0  0  0  0  0
  1  2  1  0  0  0  0
  2  3  1  0  0  0  0
  2  5  1  0  0  0  0
  3  4  1  0  0  0  0
  5  6  4  0  0  0  0
  5 10  4  0  0  0  0
  6  7  4  0  0  0  0
  7  8  4  0  0  0  0
  8  9  4  0  0  0  0
  9 10  4  0  0  0  0
 10 11  1  0  0  0  0
 11 12  4  0  0  0  0
 11 15  4  0  0  0  0
 12 13  1  0  0  0  0
 12 68  4  0  0  0  0
 13 14  1  0  0  0  0
 15 16  1  0  0  0  0
 15 67  4  0  0  0  0
 16 17  1  0  0  0  0
 17 18  1  0  0  0  0
 17 19  1  0  0  0  0
 17 20  1  0  0  0  0
 20 21  1  0  0  0  0
 21 22  1  0  0  0  0
 22 23  1  0  0  0  0
 22 66  2  0  0  0  0
 23 24  1  0  0  0  0
 23 65  1  0  0  0  0
 24 25  1  0  0  0  0
 25 26  1  0  0  0  0
 25 63  1  0  0  0  0
 26 27  1  0  0  0  0
 26 62  2  0  0  0  0
 27 28  1  0  0  0  0
 27 55  1  0  0  0  0
 28 29  1  0  0  0  0
 29 30  1  0  0  0  0
 29 54  2  0  0  0  0
 30 31  1  0  0  0  0
 30 34  1  0  0  0  0
 31 32  1  0  0  0  0
 31 33  1  0  0  0  0
 34 35  1  0  0  0  0
 34 53  1  0  0  0  0
 35 36  1  0  0  0  0
 35 52  2  0  0  0  0
 36 37  1  0  0  0  0
 36 51  1  0  0  0  0
 36 73  1  0  0  0  0
 37 38  1  0  0  0  0
 38 39  1  0  0  0  0
 39 40  1  0  0  0  0
 39 50  1  0  0  0  0
 40 41  1  0  0  0  0
 40 49  2  0  0  0  0
 41 42  1  0  0  0  0
 42 43  1  0  0  0  0
 43 44  1  0  0  0  0
 43 47  1  0  0  0  0
 43 48  1  0  0  0  0
 44 45  1  0  0  0  0
 44 46  1  0  0  0  0
 50 51  1  0  0  0  0
 55 56  1  0  0  0  0
 56 57  1  0  0  0  0
 56 61  1  0  0  0  0
 57 58  1  0  0  0  0
 58 59  1  0  0  0  0
 58 71  1  0  0  0  0
 59 60  1  0  0  0  0
 60 61  1  0  0  0  0
 63 64  1  0  0  0  0
 64 65  1  0  0  0  0
 67 68  4  0  0  0  0
 67 72  4  0  0  0  0
 68 69  4  0  0  0  0
 69 70  4  0  0  0  0
 70 71  4  0  0  0  0
 71 72  4  0  0  0  0
M  END
$$$$
