mol_ETKDG2_53
  PyMOL3.1          3D                             0

 73 79  0  0  0  0  0  0  0  0999 V2000
   -0.3652   16.0905  -11.5714 C   0  0  0  0  0  0  0  0  0  0  0  0
   -0.1839   14.6215  -11.9292 C   0  0  0  0  0  0  0  0  0  0  0  0
   -0.2400   14.3965  -13.3342 O   0  0  0  0  0  0  0  0  0  0  0  0
   -1.2476   13.5247  -13.8106 C   0  0  0  0  0  0  0  0  0  0  0  0
    1.1033   14.0828  -11.4332 C   0  0  0  0  0  0  0  0  0  0  0  0
    2.2257   14.6759  -11.8163 N   0  0  0  0  0  0  0  0  0  0  0  0
    3.4175   14.2145  -11.4135 C   0  0  0  0  0  0  0  0  0  0  0  0
    3.5083   13.1083  -10.5656 C   0  0  0  0  0  0  0  0  0  0  0  0
    2.3631   12.4934  -10.1629 C   0  0  0  0  0  0  0  0  0  0  0  0
    1.1617   12.9757  -10.6050 C   0  0  0  0  0  0  0  0  0  0  0  0
   -0.0498   12.3431  -10.1612 C   0  0  0  0  0  0  0  0  0  0  0  0
   -0.6588   11.3068  -10.8037 N   0  0  0  0  0  0  0  0  0  0  0  0
   -0.1900   10.5935  -11.9979 C   0  0  0  0  0  0  0  0  0  0  0  0
    0.4250    9.2600  -11.5817 C   0  0  0  0  0  0  0  0  0  0  0  0
   -0.8229   12.7382   -9.0720 C   0  0  0  0  0  0  0  0  0  0  0  0
   -0.5989   13.8040   -8.0470 C   0  0  0  0  0  0  0  0  0  0  0  0
    0.1053   13.3403   -6.7273 C   0  0  0  0  0  0  0  0  0  0  0  0
   -0.5257   14.0953   -5.5524 C   0  0  0  0  0  0  0  0  0  0  0  0
    1.6091   13.7060   -6.7885 C   0  0  0  0  0  0  0  0  0  0  0  0
    0.0734   11.9221   -6.4675 C   0  0  0  0  0  0  0  0  0  0  0  0
   -0.6132   11.4086   -5.2693 O   0  0  0  0  0  0  0  0  0  0  0  0
   -0.8938   10.0374   -5.0785 C   0  0  0  0  0  0  0  0  0  0  0  0
   -1.6269    9.7372   -3.8074 C   0  0  0  0  0  0  0  0  0  0  0  0
   -2.3427    8.4789   -3.9844 N   0  0  0  0  0  0  0  0  0  0  0  0
   -3.0235    8.0537   -2.8656 N   0  0  0  0  0  0  0  0  0  0  0  0
   -4.3898    7.9561   -2.8547 C   0  0  0  0  0  0  0  0  0  0  0  0
   -5.1033    8.2786   -4.1415 C   0  0  0  0  0  0  0  0  0  0  0  0
   -6.3103    7.4950   -4.3259 N   0  0  0  0  0  0  0  0  0  0  0  0
   -6.4599    6.5666   -5.2784 C   0  0  0  0  0  0  0  0  0  0  0  0
   -7.8511    6.0299   -5.4040 C   0  0  0  0  0  0  0  0  0  0  0  0
   -7.9486    4.5074   -5.0945 C   0  0  0  0  0  0  0  0  0  0  0  0
   -9.3808    4.0246   -5.3076 C   0  0  0  0  0  0  0  0  0  0  0  0
   -7.5257    4.2488   -3.6391 C   0  0  0  0  0  0  0  0  0  0  0  0
   -8.3684    6.3642   -6.7254 N   0  0  0  0  0  0  0  0  0  0  0  0
   -9.1889    7.4573   -6.8395 C   0  0  0  0  0  0  0  0  0  0  0  0
   -9.9407    7.7210   -8.1349 C   0  0  0  0  0  0  0  0  0  0  0  0
  -10.6881    9.0540   -8.1136 C   0  0  0  0  0  0  0  0  0  0  0  0
  -11.4909    9.2070   -9.3551 C   0  0  0  0  0  0  0  0  0  0  0  0
  -12.3619    8.0349   -9.5537 N   0  0  0  0  0  0  0  0  0  0  0  0
  -13.7124    8.0994   -9.7280 C   0  0  0  0  0  0  0  0  0  0  0  0
  -14.3817    9.3272   -9.6143 C   0  0  0  0  0  0  0  0  0  0  0  0
  -15.0719   10.2558   -9.5772 C   0  0  0  0  0  0  0  0  0  0  0  0
  -15.7953   11.4951   -9.4379 C   0  0  0  0  0  0  0  0  0  0  0  0
  -16.8044   11.3704   -8.3595 N   0  0  0  0  0  0  0  0  0  0  0  0
  -16.2231   11.1056   -7.0268 C   0  0  0  0  0  0  0  0  0  0  0  0
  -17.9287   10.4673   -8.6762 C   0  0  0  0  0  0  0  0  0  0  0  0
  -14.8232   12.6478   -9.1015 C   0  0  0  0  0  0  0  0  0  0  0  0
  -16.4799   11.7891  -10.7777 C   0  0  0  0  0  0  0  0  0  0  0  0
  -14.3527    7.0884   -9.9659 O   0  0  0  0  0  0  0  0  0  0  0  0
  -11.7284    6.7285   -9.5335 C   0  0  0  0  0  0  0  0  0  0  0  0
  -10.9689    6.6036   -8.2564 C   0  0  0  0  0  0  0  0  0  0  0  0
   -9.3586    8.2126   -5.8751 O   0  0  0  0  0  0  0  0  0  0  0  0
   -7.9470    5.5037   -7.8652 C   0  0  0  0  0  0  0  0  0  0  0  0
   -5.5423    6.2169   -6.0149 O   0  0  0  0  0  0  0  0  0  0  0  0
   -5.5196    9.7694   -4.0880 C   0  0  0  0  0  0  0  0  0  0  0  0
   -5.9682   10.2360   -5.4585 C   0  0  0  0  0  0  0  0  0  0  0  0
   -4.7459   10.4314   -6.3077 C   0  0  0  0  0  0  0  0  0  0  0  0
   -5.1268   10.9730   -7.6192 N   0  0  0  0  0  0  0  0  0  0  0  0
   -5.9627   12.2537   -7.4320 C   0  0  0  0  0  0  0  0  0  0  0  0
   -7.1579   11.9635   -6.5841 C   0  0  0  0  0  0  0  0  0  0  0  0
   -6.7193   11.4448   -5.3166 O   0  0  0  0  0  0  0  0  0  0  0  0
   -5.0239    7.7039   -1.8614 O   0  0  0  0  0  0  0  0  0  0  0  0
   -2.1965    7.8316   -1.6819 C   0  0  0  0  0  0  0  0  0  0  0  0
   -1.4301    9.1488   -1.3814 C   0  0  0  0  0  0  0  0  0  0  0  0
   -0.6702    9.6104   -2.6163 C   0  0  0  0  0  0  0  0  0  0  0  0
   -0.6218    9.0830   -5.8460 O   0  0  0  0  0  0  0  0  0  0  0  0
   -1.9083   11.8997   -9.0938 C   0  0  0  0  0  0  0  0  0  0  0  0
   -1.7831   11.0144  -10.1576 C   0  0  0  0  0  0  0  0  0  0  0  0
   -2.8033   10.0454  -10.3688 C   0  0  0  0  0  0  0  0  0  0  0  0
   -3.8856   10.0329   -9.5031 C   0  0  0  0  0  0  0  0  0  0  0  0
   -4.0028   10.9837   -8.4542 C   0  0  0  0  0  0  0  0  0  0  0  0
   -2.9598   11.8922   -8.2674 C   0  0  0  0  0  0  0  0  0  0  0  0
   -9.0617    7.7370   -9.2068 F   0  0  0  0  0  0  0  0  0  0  0  0
  1  2  1  0  0  0  0
  2  3  1  0  0  0  0
  2  5  1  0  0  0  0
  3  4  1  0  0  0  0
  5  6  4  0  0  0  0
  5 10  4  0  0  0  0
  6  7  4  0  0  0  0
  7  8  4  0  0  0  0
  8  9  4  0  0  0  0
  9 10  4  0  0  0  0
 10 11  1  0  0  0  0
 11 12  4  0  0  0  0
 11 15  4  0  0  0  0
 12 13  1  0  0  0  0
 12 68  4  0  0  0  0
 13 14  1  0  0  0  0
 15 16  1  0  0  0  0
 15 67  4  0  0  0  0
 16 17  1  0  0  0  0
 17 18  1  0  0  0  0
 17 19  1  0  0  0  0
 17 20  1  0  0  0  0
 20 21  1  0  0  0  0
 21 22  1  0  0  0  0
 22 23  1  0  0  0  0
 22 66  2  0  0  0  0
 23 24  1  0  0  0  0
 23 65  1  0  0  0  0
 24 25  1  0  0  0  0
 25 26  1  0  0  0  0
 25 63  1  0  0  0  0
 26 27  1  0  0  0  0
 26 62  2  0  0  0  0
 27 28  1  0  0  0  0
 27 55  1  0  0  0  0
 28 29  1  0  0  0  0
 29 30  1  0  0  0  0
 29 54  2  0  0  0  0
 30 31  1  0  0  0  0
 30 34  1  0  0  0  0
 31 32  1  0  0  0  0
 31 33  1  0  0  0  0
 34 35  1  0  0  0  0
 34 53  1  0  0  0  0
 35 36  1  0  0  0  0
 35 52  2  0  0  0  0
 36 37  1  0  0  0  0
 36 51  1  0  0  0  0
 36 73  1  0  0  0  0
 37 38  1  0  0  0  0
 38 39  1  0  0  0  0
 39 40  1  0  0  0  0
 39 50  1  0  0  0  0
 40 41  1  0  0  0  0
 40 49  2  0  0  0  0
 41 42  1  0  0  0  0
 42 43  1  0  0  0  0
 43 44  1  0  0  0  0
 43 47  1  0  0  0  0
 43 48  1  0  0  0  0
 44 45  1  0  0  0  0
 44 46  1  0  0  0  0
 50 51  1  0  0  0  0
 55 56  1  0  0  0  0
 56 57  1  0  0  0  0
 56 61  1  0  0  0  0
 57 58  1  0  0  0  0
 58 59  1  0  0  0  0
 58 71  1  0  0  0  0
 59 60  1  0  0  0  0
 60 61  1  0  0  0  0
 63 64  1  0  0  0  0
 64 65  1  0  0  0  0
 67 68  4  0  0  0  0
 67 72  4  0  0  0  0
 68 69  4  0  0  0  0
 69 70  4  0  0  0  0
 70 71  4  0  0  0  0
 71 72  4  0  0  0  0
M  END
$$$$
