mol_ETKDG0_161
  PyMOL3.1          3D                             0

 73 79  0  0  0  0  0  0  0  0999 V2000
    0.3078   16.9924  -10.8933 C   0  0  0  0  0  0  0  0  0  0  0  0
    0.0029   15.5343  -10.6610 C   0  0  0  0  0  0  0  0  0  0  0  0
   -0.6488   14.9797  -11.7512 O   0  0  0  0  0  0  0  0  0  0  0  0
   -2.0636   15.1467  -11.7895 C   0  0  0  0  0  0  0  0  0  0  0  0
    1.2286   14.7337  -10.4003 C   0  0  0  0  0  0  0  0  0  0  0  0
    2.4103   15.2894  -10.6308 N   0  0  0  0  0  0  0  0  0  0  0  0
    3.5455   14.5985  -10.4314 C   0  0  0  0  0  0  0  0  0  0  0  0
    3.5179   13.2946   -9.9526 C   0  0  0  0  0  0  0  0  0  0  0  0
    2.3118   12.7266   -9.7091 C   0  0  0  0  0  0  0  0  0  0  0  0
    1.1653   13.4258   -9.9521 C   0  0  0  0  0  0  0  0  0  0  0  0
   -0.1000   12.8089   -9.6658 C   0  0  0  0  0  0  0  0  0  0  0  0
   -0.6942   11.8512  -10.4286 N   0  0  0  0  0  0  0  0  0  0  0  0
   -0.1865   11.2289  -11.6515 C   0  0  0  0  0  0  0  0  0  0  0  0
    0.4123    9.8568  -11.3155 C   0  0  0  0  0  0  0  0  0  0  0  0
   -0.9301   13.1231   -8.5997 C   0  0  0  0  0  0  0  0  0  0  0  0
   -0.7567   14.1123   -7.4978 C   0  0  0  0  0  0  0  0  0  0  0  0
   -0.0464   13.5714   -6.2378 C   0  0  0  0  0  0  0  0  0  0  0  0
   -0.7181   14.1753   -5.0072 C   0  0  0  0  0  0  0  0  0  0  0  0
    1.4396   13.9888   -6.2434 C   0  0  0  0  0  0  0  0  0  0  0  0
   -0.0303   12.1291   -6.1302 C   0  0  0  0  0  0  0  0  0  0  0  0
   -0.7301   11.5063   -5.0411 O   0  0  0  0  0  0  0  0  0  0  0  0
   -1.0124   10.1375   -4.9983 C   0  0  0  0  0  0  0  0  0  0  0  0
   -1.7290    9.7585   -3.7558 C   0  0  0  0  0  0  0  0  0  0  0  0
   -2.4147    8.4948   -3.9825 N   0  0  0  0  0  0  0  0  0  0  0  0
   -3.0844    8.0387   -2.8782 N   0  0  0  0  0  0  0  0  0  0  0  0
   -4.4441    7.9530   -2.8712 C   0  0  0  0  0  0  0  0  0  0  0  0
   -5.1637    8.2976   -4.1450 C   0  0  0  0  0  0  0  0  0  0  0  0
   -6.3400    7.4845   -4.3555 N   0  0  0  0  0  0  0  0  0  0  0  0
   -6.4066    6.5285   -5.2785 C   0  0  0  0  0  0  0  0  0  0  0  0
   -7.7704    5.9303   -5.4145 C   0  0  0  0  0  0  0  0  0  0  0  0
   -7.8276    4.4194   -5.0292 C   0  0  0  0  0  0  0  0  0  0  0  0
   -9.2171    3.8574   -5.2952 C   0  0  0  0  0  0  0  0  0  0  0  0
   -7.4955    4.2502   -3.5401 C   0  0  0  0  0  0  0  0  0  0  0  0
   -8.2442    6.1414   -6.7583 N   0  0  0  0  0  0  0  0  0  0  0  0
   -9.2356    7.0541   -6.9373 C   0  0  0  0  0  0  0  0  0  0  0  0
   -9.9702    7.1096   -8.2447 C   0  0  0  0  0  0  0  0  0  0  0  0
  -11.2251    7.9740   -8.1450 C   0  0  0  0  0  0  0  0  0  0  0  0
  -12.0541    7.8400   -9.3756 C   0  0  0  0  0  0  0  0  0  0  0  0
  -12.2739    6.4183   -9.6681 N   0  0  0  0  0  0  0  0  0  0  0  0
  -13.4602    5.7712   -9.7186 C   0  0  0  0  0  0  0  0  0  0  0  0
  -14.6112    6.4412   -9.3802 C   0  0  0  0  0  0  0  0  0  0  0  0
  -15.6390    6.8664   -9.1376 C   0  0  0  0  0  0  0  0  0  0  0  0
  -16.8433    7.4912   -8.7457 C   0  0  0  0  0  0  0  0  0  0  0  0
  -16.7273    8.0689   -7.4202 N   0  0  0  0  0  0  0  0  0  0  0  0
  -15.8868    7.3954   -6.4629 C   0  0  0  0  0  0  0  0  0  0  0  0
  -17.8784    8.7245   -6.8799 C   0  0  0  0  0  0  0  0  0  0  0  0
  -17.9567    6.4319   -8.7252 C   0  0  0  0  0  0  0  0  0  0  0  0
  -17.1486    8.6107   -9.7523 C   0  0  0  0  0  0  0  0  0  0  0  0
  -13.5178    4.5838  -10.0391 O   0  0  0  0  0  0  0  0  0  0  0  0
  -11.1256    5.6113   -9.8268 C   0  0  0  0  0  0  0  0  0  0  0  0
  -10.4305    5.6939   -8.5280 C   0  0  0  0  0  0  0  0  0  0  0  0
   -9.5678    7.8140   -6.0152 O   0  0  0  0  0  0  0  0  0  0  0  0
   -7.6030    5.3489   -7.8462 C   0  0  0  0  0  0  0  0  0  0  0  0
   -5.4568    6.2019   -5.9731 O   0  0  0  0  0  0  0  0  0  0  0  0
   -5.6299    9.7815   -4.0335 C   0  0  0  0  0  0  0  0  0  0  0  0
   -6.0943   10.2989   -5.3733 C   0  0  0  0  0  0  0  0  0  0  0  0
   -4.8784   10.5921   -6.1955 C   0  0  0  0  0  0  0  0  0  0  0  0
   -5.2620   11.2283   -7.4613 N   0  0  0  0  0  0  0  0  0  0  0  0
   -6.1312   12.4663   -7.1908 C   0  0  0  0  0  0  0  0  0  0  0  0
   -7.3292   12.0748   -6.3981 C   0  0  0  0  0  0  0  0  0  0  0  0
   -6.9018   11.4612   -5.1700 O   0  0  0  0  0  0  0  0  0  0  0  0
   -5.0785    7.6812   -1.8766 O   0  0  0  0  0  0  0  0  0  0  0  0
   -2.2391    7.7855   -1.7056 C   0  0  0  0  0  0  0  0  0  0  0  0
   -1.5013    9.0843   -1.3660 C   0  0  0  0  0  0  0  0  0  0  0  0
   -0.7632    9.6103   -2.5791 C   0  0  0  0  0  0  0  0  0  0  0  0
   -0.7548    9.2441   -5.8498 O   0  0  0  0  0  0  0  0  0  0  0  0
   -2.0168   12.3033   -8.7417 C   0  0  0  0  0  0  0  0  0  0  0  0
   -1.8515   11.5162   -9.8669 C   0  0  0  0  0  0  0  0  0  0  0  0
   -2.8553   10.5802  -10.2095 C   0  0  0  0  0  0  0  0  0  0  0  0
   -3.9768   10.4924   -9.3853 C   0  0  0  0  0  0  0  0  0  0  0  0
   -4.1222   11.3314   -8.2671 C   0  0  0  0  0  0  0  0  0  0  0  0
   -3.1012   12.2253   -7.9548 C   0  0  0  0  0  0  0  0  0  0  0  0
   -9.1318    7.5967   -9.2429 F   0  0  0  0  0  0  0  0  0  0  0  0
  1  2  1  0  0  0  0
  2  3  1  0  0  0  0
  2  5  1  0  0  0  0
  3  4  1  0  0  0  0
  5  6  4  0  0  0  0
  5 10  4  0  0  0  0
  6  7  4  0  0  0  0
  7  8  4  0  0  0  0
  8  9  4  0  0  0  0
  9 10  4  0  0  0  0
 10 11  1  0  0  0  0
 11 12  4  0  0  0  0
 11 15  4  0  0  0  0
 12 13  1  0  0  0  0
 12 68  4  0  0  0  0
 13 14  1  0  0  0  0
 15 16  1  0  0  0  0
 15 67  4  0  0  0  0
 16 17  1  0  0  0  0
 17 18  1  0  0  0  0
 17 19  1  0  0  0  0
 17 20  1  0  0  0  0
 20 21  1  0  0  0  0
 21 22  1  0  0  0  0
 22 23  1  0  0  0  0
 22 66  2  0  0  0  0
 23 24  1  0  0  0  0
 23 65  1  0  0  0  0
 24 25  1  0  0  0  0
 25 26  1  0  0  0  0
 25 63  1  0  0  0  0
 26 27  1  0  0  0  0
 26 62  2  0  0  0  0
 27 28  1  0  0  0  0
 27 55  1  0  0  0  0
 28 29  1  0  0  0  0
 29 30  1  0  0  0  0
 29 54  2  0  0  0  0
 30 31  1  0  0  0  0
 30 34  1  0  0  0  0
 31 32  1  0  0  0  0
 31 33  1  0  0  0  0
 34 35  1  0  0  0  0
 34 53  1  0  0  0  0
 35 36  1  0  0  0  0
 35 52  2  0  0  0  0
 36 37  1  0  0  0  0
 36 51  1  0  0  0  0
 36 73  1  0  0  0  0
 37 38  1  0  0  0  0
 38 39  1  0  0  0  0
 39 40  1  0  0  0  0
 39 50  1  0  0  0  0
 40 41  1  0  0  0  0
 40 49  2  0  0  0  0
 41 42  1  0  0  0  0
 42 43  1  0  0  0  0
 43 44  1  0  0  0  0
 43 47  1  0  0  0  0
 43 48  1  0  0  0  0
 44 45  1  0  0  0  0
 44 46  1  0  0  0  0
 50 51  1  0  0  0  0
 55 56  1  0  0  0  0
 56 57  1  0  0  0  0
 56 61  1  0  0  0  0
 57 58  1  0  0  0  0
 58 59  1  0  0  0  0
 58 71  1  0  0  0  0
 59 60  1  0  0  0  0
 60 61  1  0  0  0  0
 63 64  1  0  0  0  0
 64 65  1  0  0  0  0
 67 68  4  0  0  0  0
 67 72  4  0  0  0  0
 68 69  4  0  0  0  0
 69 70  4  0  0  0  0
 70 71  4  0  0  0  0
 71 72  4  0  0  0  0
M  END
$$$$
