mol_ETKDG0_165
  PyMOL3.1          3D                             0

 73 79  0  0  0  0  0  0  0  0999 V2000
   -0.3890   14.9719  -13.6089 C   0  0  0  0  0  0  0  0  0  0  0  0
   -0.4715   14.5076  -12.1661 C   0  0  0  0  0  0  0  0  0  0  0  0
   -0.9041   15.5148  -11.3091 O   0  0  0  0  0  0  0  0  0  0  0  0
   -2.3148   15.7001  -11.1736 C   0  0  0  0  0  0  0  0  0  0  0  0
    0.8327   14.0132  -11.6555 C   0  0  0  0  0  0  0  0  0  0  0  0
    1.9489   14.5886  -12.0901 N   0  0  0  0  0  0  0  0  0  0  0  0
    3.1528   14.1556  -11.6565 C   0  0  0  0  0  0  0  0  0  0  0  0
    3.2598   13.0900  -10.7653 C   0  0  0  0  0  0  0  0  0  0  0  0
    2.1150   12.4933  -10.3295 C   0  0  0  0  0  0  0  0  0  0  0  0
    0.9045   12.9606  -10.7652 C   0  0  0  0  0  0  0  0  0  0  0  0
   -0.2987   12.3529  -10.2769 C   0  0  0  0  0  0  0  0  0  0  0  0
   -0.9451   11.3467  -10.9134 N   0  0  0  0  0  0  0  0  0  0  0  0
   -0.5357   10.6491  -12.1471 C   0  0  0  0  0  0  0  0  0  0  0  0
    0.0969    9.2991  -11.8000 C   0  0  0  0  0  0  0  0  0  0  0  0
   -1.0229   12.7435   -9.1464 C   0  0  0  0  0  0  0  0  0  0  0  0
   -0.7459   13.7960   -8.1088 C   0  0  0  0  0  0  0  0  0  0  0  0
   -0.0133   13.3021   -6.8178 C   0  0  0  0  0  0  0  0  0  0  0  0
   -0.6079   14.0459   -5.6209 C   0  0  0  0  0  0  0  0  0  0  0  0
    1.4910   13.6232   -6.8966 C   0  0  0  0  0  0  0  0  0  0  0  0
   -0.0758   11.8848   -6.5814 C   0  0  0  0  0  0  0  0  0  0  0  0
   -0.6971   11.3841   -5.3568 O   0  0  0  0  0  0  0  0  0  0  0  0
   -0.9772   10.0110   -5.1532 C   0  0  0  0  0  0  0  0  0  0  0  0
   -1.6737    9.7205   -3.8636 C   0  0  0  0  0  0  0  0  0  0  0  0
   -2.3766    8.4487   -4.0084 N   0  0  0  0  0  0  0  0  0  0  0  0
   -3.0397    8.0433   -2.8708 N   0  0  0  0  0  0  0  0  0  0  0  0
   -4.4023    7.9491   -2.8460 C   0  0  0  0  0  0  0  0  0  0  0  0
   -5.1194    8.2433   -4.1313 C   0  0  0  0  0  0  0  0  0  0  0  0
   -6.3150    7.4496   -4.3154 N   0  0  0  0  0  0  0  0  0  0  0  0
   -6.4277    6.5004   -5.2454 C   0  0  0  0  0  0  0  0  0  0  0  0
   -7.8229    5.9658   -5.3752 C   0  0  0  0  0  0  0  0  0  0  0  0
   -7.9373    4.4435   -5.0824 C   0  0  0  0  0  0  0  0  0  0  0  0
   -9.3603    3.9567   -5.3541 C   0  0  0  0  0  0  0  0  0  0  0  0
   -7.5850    4.1855   -3.6061 C   0  0  0  0  0  0  0  0  0  0  0  0
   -8.3223    6.3263   -6.6875 N   0  0  0  0  0  0  0  0  0  0  0  0
   -9.1112    7.4408   -6.7737 C   0  0  0  0  0  0  0  0  0  0  0  0
   -9.8415    7.7470   -8.0504 C   0  0  0  0  0  0  0  0  0  0  0  0
  -10.5863    9.0769   -7.9586 C   0  0  0  0  0  0  0  0  0  0  0  0
  -11.4246    9.2727   -9.1592 C   0  0  0  0  0  0  0  0  0  0  0  0
  -12.2785    8.0962   -9.3527 N   0  0  0  0  0  0  0  0  0  0  0  0
  -13.6278    8.1197   -9.3725 C   0  0  0  0  0  0  0  0  0  0  0  0
  -14.3061    9.3179   -9.1443 C   0  0  0  0  0  0  0  0  0  0  0  0
  -14.9710   10.2373   -9.0030 C   0  0  0  0  0  0  0  0  0  0  0  0
  -15.7276   11.4400   -8.7453 C   0  0  0  0  0  0  0  0  0  0  0  0
  -14.9231   12.3679   -7.9253 N   0  0  0  0  0  0  0  0  0  0  0  0
  -14.5474   11.8010   -6.6083 C   0  0  0  0  0  0  0  0  0  0  0  0
  -13.7411   12.9164   -8.6268 C   0  0  0  0  0  0  0  0  0  0  0  0
  -17.0084   11.0773   -7.9815 C   0  0  0  0  0  0  0  0  0  0  0  0
  -16.0709   12.1004  -10.0896 C   0  0  0  0  0  0  0  0  0  0  0  0
  -14.2573    7.0917   -9.5735 O   0  0  0  0  0  0  0  0  0  0  0  0
  -11.6280    6.8115   -9.4685 C   0  0  0  0  0  0  0  0  0  0  0  0
  -10.8449    6.6200   -8.2223 C   0  0  0  0  0  0  0  0  0  0  0  0
   -9.2782    8.1776   -5.7863 O   0  0  0  0  0  0  0  0  0  0  0  0
   -7.8951    5.4882   -7.8404 C   0  0  0  0  0  0  0  0  0  0  0  0
   -5.5060    6.1476   -5.9605 O   0  0  0  0  0  0  0  0  0  0  0  0
   -5.5502    9.7424   -4.0767 C   0  0  0  0  0  0  0  0  0  0  0  0
   -6.0421   10.2031   -5.4265 C   0  0  0  0  0  0  0  0  0  0  0  0
   -4.8473   10.4423   -6.2988 C   0  0  0  0  0  0  0  0  0  0  0  0
   -5.2822   10.9819   -7.5961 N   0  0  0  0  0  0  0  0  0  0  0  0
   -6.1376   12.2374   -7.3830 C   0  0  0  0  0  0  0  0  0  0  0  0
   -7.3136   11.8945   -6.5182 C   0  0  0  0  0  0  0  0  0  0  0  0
   -6.8313   11.3814   -5.2645 O   0  0  0  0  0  0  0  0  0  0  0  0
   -5.0348    7.7236   -1.8386 O   0  0  0  0  0  0  0  0  0  0  0  0
   -2.1845    7.8441   -1.6940 C   0  0  0  0  0  0  0  0  0  0  0  0
   -1.4220    9.1533   -1.4333 C   0  0  0  0  0  0  0  0  0  0  0  0
   -0.6915    9.6152   -2.6888 C   0  0  0  0  0  0  0  0  0  0  0  0
   -0.7322    9.0478   -5.9227 O   0  0  0  0  0  0  0  0  0  0  0  0
   -2.1182   11.9215   -9.1450 C   0  0  0  0  0  0  0  0  0  0  0  0
   -2.0452   11.0565  -10.2329 C   0  0  0  0  0  0  0  0  0  0  0  0
   -3.0756   10.1066  -10.4407 C   0  0  0  0  0  0  0  0  0  0  0  0
   -4.1308   10.0862   -9.5343 C   0  0  0  0  0  0  0  0  0  0  0  0
   -4.1919   11.0091   -8.4699 C   0  0  0  0  0  0  0  0  0  0  0  0
   -3.1516   11.9087   -8.2778 C   0  0  0  0  0  0  0  0  0  0  0  0
   -8.9484    7.8197   -9.1114 F   0  0  0  0  0  0  0  0  0  0  0  0
  1  2  1  0  0  0  0
  2  3  1  0  0  0  0
  2  5  1  0  0  0  0
  3  4  1  0  0  0  0
  5  6  4  0  0  0  0
  5 10  4  0  0  0  0
  6  7  4  0  0  0  0
  7  8  4  0  0  0  0
  8  9  4  0  0  0  0
  9 10  4  0  0  0  0
 10 11  1  0  0  0  0
 11 12  4  0  0  0  0
 11 15  4  0  0  0  0
 12 13  1  0  0  0  0
 12 68  4  0  0  0  0
 13 14  1  0  0  0  0
 15 16  1  0  0  0  0
 15 67  4  0  0  0  0
 16 17  1  0  0  0  0
 17 18  1  0  0  0  0
 17 19  1  0  0  0  0
 17 20  1  0  0  0  0
 20 21  1  0  0  0  0
 21 22  1  0  0  0  0
 22 23  1  0  0  0  0
 22 66  2  0  0  0  0
 23 24  1  0  0  0  0
 23 65  1  0  0  0  0
 24 25  1  0  0  0  0
 25 26  1  0  0  0  0
 25 63  1  0  0  0  0
 26 27  1  0  0  0  0
 26 62  2  0  0  0  0
 27 28  1  0  0  0  0
 27 55  1  0  0  0  0
 28 29  1  0  0  0  0
 29 30  1  0  0  0  0
 29 54  2  0  0  0  0
 30 31  1  0  0  0  0
 30 34  1  0  0  0  0
 31 32  1  0  0  0  0
 31 33  1  0  0  0  0
 34 35  1  0  0  0  0
 34 53  1  0  0  0  0
 35 36  1  0  0  0  0
 35 52  2  0  0  0  0
 36 37  1  0  0  0  0
 36 51  1  0  0  0  0
 36 73  1  0  0  0  0
 37 38  1  0  0  0  0
 38 39  1  0  0  0  0
 39 40  1  0  0  0  0
 39 50  1  0  0  0  0
 40 41  1  0  0  0  0
 40 49  2  0  0  0  0
 41 42  1  0  0  0  0
 42 43  1  0  0  0  0
 43 44  1  0  0  0  0
 43 47  1  0  0  0  0
 43 48  1  0  0  0  0
 44 45  1  0  0  0  0
 44 46  1  0  0  0  0
 50 51  1  0  0  0  0
 55 56  1  0  0  0  0
 56 57  1  0  0  0  0
 56 61  1  0  0  0  0
 57 58  1  0  0  0  0
 58 59  1  0  0  0  0
 58 71  1  0  0  0  0
 59 60  1  0  0  0  0
 60 61  1  0  0  0  0
 63 64  1  0  0  0  0
 64 65  1  0  0  0  0
 67 68  4  0  0  0  0
 67 72  4  0  0  0  0
 68 69  4  0  0  0  0
 69 70  4  0  0  0  0
 70 71  4  0  0  0  0
 71 72  4  0  0  0  0
M  END
$$$$
