mol_ETKDG5_148
  PyMOL3.1          3D                             0

 73 79  0  0  0  0  0  0  0  0999 V2000
    0.0615   16.7425  -10.8537 C   0  0  0  0  0  0  0  0  0  0  0  0
    0.1254   15.2921  -11.2923 C   0  0  0  0  0  0  0  0  0  0  0  0
    0.0520   15.1202  -12.6926 O   0  0  0  0  0  0  0  0  0  0  0  0
   -1.1795   14.6760  -13.2228 C   0  0  0  0  0  0  0  0  0  0  0  0
    1.3618   14.6285  -10.8487 C   0  0  0  0  0  0  0  0  0  0  0  0
    2.5169   15.2170  -11.1174 N   0  0  0  0  0  0  0  0  0  0  0  0
    3.6733   14.6249  -10.7730 C   0  0  0  0  0  0  0  0  0  0  0  0
    3.6836   13.3964  -10.1093 C   0  0  0  0  0  0  0  0  0  0  0  0
    2.4921   12.8010   -9.8268 C   0  0  0  0  0  0  0  0  0  0  0  0
    1.3301   13.4123  -10.2072 C   0  0  0  0  0  0  0  0  0  0  0  0
    0.0669   12.7866   -9.8820 C   0  0  0  0  0  0  0  0  0  0  0  0
   -0.5386   11.8261  -10.6317 N   0  0  0  0  0  0  0  0  0  0  0  0
   -0.0478   11.2284  -11.8730 C   0  0  0  0  0  0  0  0  0  0  0  0
    0.5131    9.8342  -11.5785 C   0  0  0  0  0  0  0  0  0  0  0  0
   -0.7388   13.1060   -8.8018 C   0  0  0  0  0  0  0  0  0  0  0  0
   -0.5415   14.0855   -7.7079 C   0  0  0  0  0  0  0  0  0  0  0  0
    0.1519   13.5177   -6.4313 C   0  0  0  0  0  0  0  0  0  0  0  0
   -0.4716   14.1950   -5.2092 C   0  0  0  0  0  0  0  0  0  0  0  0
    1.6577   13.8518   -6.4545 C   0  0  0  0  0  0  0  0  0  0  0  0
    0.0743   12.0791   -6.2954 C   0  0  0  0  0  0  0  0  0  0  0  0
   -0.6357   11.5044   -5.1626 O   0  0  0  0  0  0  0  0  0  0  0  0
   -0.9213   10.1300   -5.0628 C   0  0  0  0  0  0  0  0  0  0  0  0
   -1.6596    9.7851   -3.8115 C   0  0  0  0  0  0  0  0  0  0  0  0
   -2.3511    8.5287   -4.0222 N   0  0  0  0  0  0  0  0  0  0  0  0
   -3.0300    8.0794   -2.9100 N   0  0  0  0  0  0  0  0  0  0  0  0
   -4.3869    7.9937   -2.9091 C   0  0  0  0  0  0  0  0  0  0  0  0
   -5.0874    8.3250   -4.1943 C   0  0  0  0  0  0  0  0  0  0  0  0
   -6.2788    7.5393   -4.3913 N   0  0  0  0  0  0  0  0  0  0  0  0
   -6.4040    6.5991   -5.3393 C   0  0  0  0  0  0  0  0  0  0  0  0
   -7.7988    6.0736   -5.4484 C   0  0  0  0  0  0  0  0  0  0  0  0
   -7.9099    4.5496   -5.1844 C   0  0  0  0  0  0  0  0  0  0  0  0
   -9.3439    4.0781   -5.4086 C   0  0  0  0  0  0  0  0  0  0  0  0
   -7.4995    4.2604   -3.7286 C   0  0  0  0  0  0  0  0  0  0  0  0
   -8.3614    6.4943   -6.7195 N   0  0  0  0  0  0  0  0  0  0  0  0
   -9.0975    7.6409   -6.7208 C   0  0  0  0  0  0  0  0  0  0  0  0
   -9.9314    8.0590   -7.9060 C   0  0  0  0  0  0  0  0  0  0  0  0
  -10.4227    9.4926   -7.6921 C   0  0  0  0  0  0  0  0  0  0  0  0
  -11.4379    9.8612   -8.7028 C   0  0  0  0  0  0  0  0  0  0  0  0
  -12.4907    8.8549   -8.6699 N   0  0  0  0  0  0  0  0  0  0  0  0
  -13.7508    9.0950   -8.2007 C   0  0  0  0  0  0  0  0  0  0  0  0
  -14.0093   10.2015   -7.3506 C   0  0  0  0  0  0  0  0  0  0  0  0
  -14.3160   11.0764   -6.6437 C   0  0  0  0  0  0  0  0  0  0  0  0
  -14.6050   12.1371   -5.6837 C   0  0  0  0  0  0  0  0  0  0  0  0
  -13.3756   12.6057   -5.0283 N   0  0  0  0  0  0  0  0  0  0  0  0
  -12.6559   11.5869   -4.2710 C   0  0  0  0  0  0  0  0  0  0  0  0
  -12.4737   13.3924   -5.8886 C   0  0  0  0  0  0  0  0  0  0  0  0
  -15.5651   11.6195   -4.6063 C   0  0  0  0  0  0  0  0  0  0  0  0
  -15.2615   13.3076   -6.4190 C   0  0  0  0  0  0  0  0  0  0  0  0
  -14.6562    8.3132   -8.4588 O   0  0  0  0  0  0  0  0  0  0  0  0
  -12.0933    7.4983   -9.0042 C   0  0  0  0  0  0  0  0  0  0  0  0
  -11.1106    7.0841   -7.9380 C   0  0  0  0  0  0  0  0  0  0  0  0
   -9.1502    8.3480   -5.6998 O   0  0  0  0  0  0  0  0  0  0  0  0
   -8.0636    5.6592   -7.9188 C   0  0  0  0  0  0  0  0  0  0  0  0
   -5.4961    6.2422   -6.0798 O   0  0  0  0  0  0  0  0  0  0  0  0
   -5.5041    9.8280   -4.1226 C   0  0  0  0  0  0  0  0  0  0  0  0
   -5.9518   10.3433   -5.4807 C   0  0  0  0  0  0  0  0  0  0  0  0
   -4.7080   10.6135   -6.2936 C   0  0  0  0  0  0  0  0  0  0  0  0
   -5.0793   11.2317   -7.5843 N   0  0  0  0  0  0  0  0  0  0  0  0
   -5.9424   12.4642   -7.3621 C   0  0  0  0  0  0  0  0  0  0  0  0
   -7.1598   12.0921   -6.5622 C   0  0  0  0  0  0  0  0  0  0  0  0
   -6.7333   11.5174   -5.3076 O   0  0  0  0  0  0  0  0  0  0  0  0
   -5.0285    7.7425   -1.9191 O   0  0  0  0  0  0  0  0  0  0  0  0
   -2.2038    7.8367   -1.7324 C   0  0  0  0  0  0  0  0  0  0  0  0
   -1.4463    9.1501   -1.4025 C   0  0  0  0  0  0  0  0  0  0  0  0
   -0.7048    9.6490   -2.6224 C   0  0  0  0  0  0  0  0  0  0  0  0
   -0.6512    9.2122   -5.8738 O   0  0  0  0  0  0  0  0  0  0  0  0
   -1.8308   12.2844   -8.9208 C   0  0  0  0  0  0  0  0  0  0  0  0
   -1.6834   11.4944  -10.0453 C   0  0  0  0  0  0  0  0  0  0  0  0
   -2.7115   10.5556  -10.3642 C   0  0  0  0  0  0  0  0  0  0  0  0
   -3.8137   10.4774   -9.5249 C   0  0  0  0  0  0  0  0  0  0  0  0
   -3.9403   11.3217   -8.4033 C   0  0  0  0  0  0  0  0  0  0  0  0
   -2.9077   12.2180   -8.1133 C   0  0  0  0  0  0  0  0  0  0  0  0
   -9.1951    8.0099   -9.0860 F   0  0  0  0  0  0  0  0  0  0  0  0
  1  2  1  0  0  0  0
  2  3  1  0  0  0  0
  2  5  1  0  0  0  0
  3  4  1  0  0  0  0
  5  6  4  0  0  0  0
  5 10  4  0  0  0  0
  6  7  4  0  0  0  0
  7  8  4  0  0  0  0
  8  9  4  0  0  0  0
  9 10  4  0  0  0  0
 10 11  1  0  0  0  0
 11 12  4  0  0  0  0
 11 15  4  0  0  0  0
 12 13  1  0  0  0  0
 12 68  4  0  0  0  0
 13 14  1  0  0  0  0
 15 16  1  0  0  0  0
 15 67  4  0  0  0  0
 16 17  1  0  0  0  0
 17 18  1  0  0  0  0
 17 19  1  0  0  0  0
 17 20  1  0  0  0  0
 20 21  1  0  0  0  0
 21 22  1  0  0  0  0
 22 23  1  0  0  0  0
 22 66  2  0  0  0  0
 23 24  1  0  0  0  0
 23 65  1  0  0  0  0
 24 25  1  0  0  0  0
 25 26  1  0  0  0  0
 25 63  1  0  0  0  0
 26 27  1  0  0  0  0
 26 62  2  0  0  0  0
 27 28  1  0  0  0  0
 27 55  1  0  0  0  0
 28 29  1  0  0  0  0
 29 30  1  0  0  0  0
 29 54  2  0  0  0  0
 30 31  1  0  0  0  0
 30 34  1  0  0  0  0
 31 32  1  0  0  0  0
 31 33  1  0  0  0  0
 34 35  1  0  0  0  0
 34 53  1  0  0  0  0
 35 36  1  0  0  0  0
 35 52  2  0  0  0  0
 36 37  1  0  0  0  0
 36 51  1  0  0  0  0
 36 73  1  0  0  0  0
 37 38  1  0  0  0  0
 38 39  1  0  0  0  0
 39 40  1  0  0  0  0
 39 50  1  0  0  0  0
 40 41  1  0  0  0  0
 40 49  2  0  0  0  0
 41 42  1  0  0  0  0
 42 43  1  0  0  0  0
 43 44  1  0  0  0  0
 43 47  1  0  0  0  0
 43 48  1  0  0  0  0
 44 45  1  0  0  0  0
 44 46  1  0  0  0  0
 50 51  1  0  0  0  0
 55 56  1  0  0  0  0
 56 57  1  0  0  0  0
 56 61  1  0  0  0  0
 57 58  1  0  0  0  0
 58 59  1  0  0  0  0
 58 71  1  0  0  0  0
 59 60  1  0  0  0  0
 60 61  1  0  0  0  0
 63 64  1  0  0  0  0
 64 65  1  0  0  0  0
 67 68  4  0  0  0  0
 67 72  4  0  0  0  0
 68 69  4  0  0  0  0
 69 70  4  0  0  0  0
 70 71  4  0  0  0  0
 71 72  4  0  0  0  0
M  END
$$$$
