mol_ETKDG0_167
  PyMOL3.1          3D                             0

 73 79  0  0  0  0  0  0  0  0999 V2000
   -0.4105   15.1997  -13.3967 C   0  0  0  0  0  0  0  0  0  0  0  0
   -0.4863   14.7797  -11.9393 C   0  0  0  0  0  0  0  0  0  0  0  0
   -0.8666   15.8072  -11.0892 O   0  0  0  0  0  0  0  0  0  0  0  0
   -2.2660   16.0722  -10.9484 C   0  0  0  0  0  0  0  0  0  0  0  0
    0.8053   14.2508  -11.4444 C   0  0  0  0  0  0  0  0  0  0  0  0
    1.9299   14.8531  -11.8205 N   0  0  0  0  0  0  0  0  0  0  0  0
    3.1242   14.3825  -11.4038 C   0  0  0  0  0  0  0  0  0  0  0  0
    3.2067   13.2479  -10.5929 C   0  0  0  0  0  0  0  0  0  0  0  0
    2.0523   12.6278  -10.2167 C   0  0  0  0  0  0  0  0  0  0  0  0
    0.8486   13.1347  -10.6332 C   0  0  0  0  0  0  0  0  0  0  0  0
   -0.3712   12.5181  -10.1943 C   0  0  0  0  0  0  0  0  0  0  0  0
   -1.0338   11.5512  -10.8819 N   0  0  0  0  0  0  0  0  0  0  0  0
   -0.6263   10.9129  -12.1421 C   0  0  0  0  0  0  0  0  0  0  0  0
   -0.0368    9.5253  -11.8734 C   0  0  0  0  0  0  0  0  0  0  0  0
   -1.1000   12.8687   -9.0566 C   0  0  0  0  0  0  0  0  0  0  0  0
   -0.8109   13.8833   -7.9802 C   0  0  0  0  0  0  0  0  0  0  0  0
   -0.0565   13.3408   -6.7283 C   0  0  0  0  0  0  0  0  0  0  0  0
   -0.5981   14.0508   -5.4856 C   0  0  0  0  0  0  0  0  0  0  0  0
    1.4578   13.6382   -6.8420 C   0  0  0  0  0  0  0  0  0  0  0  0
   -0.1535   11.9082   -6.5501 C   0  0  0  0  0  0  0  0  0  0  0  0
   -0.7767   11.3762   -5.3423 O   0  0  0  0  0  0  0  0  0  0  0  0
   -1.0307   10.0019   -5.1555 C   0  0  0  0  0  0  0  0  0  0  0  0
   -1.7376    9.6923   -3.8759 C   0  0  0  0  0  0  0  0  0  0  0  0
   -2.4612    8.4392   -4.0580 N   0  0  0  0  0  0  0  0  0  0  0  0
   -3.1233    8.0088   -2.9315 N   0  0  0  0  0  0  0  0  0  0  0  0
   -4.4843    7.9125   -2.9136 C   0  0  0  0  0  0  0  0  0  0  0  0
   -5.2118    8.2163   -4.1953 C   0  0  0  0  0  0  0  0  0  0  0  0
   -6.3913    7.3946   -4.3842 N   0  0  0  0  0  0  0  0  0  0  0  0
   -6.4723    6.4203   -5.3042 C   0  0  0  0  0  0  0  0  0  0  0  0
   -7.8373    5.8101   -5.4009 C   0  0  0  0  0  0  0  0  0  0  0  0
   -7.8625    4.3020   -5.0012 C   0  0  0  0  0  0  0  0  0  0  0  0
   -9.2555    3.7198   -5.2154 C   0  0  0  0  0  0  0  0  0  0  0  0
   -7.4816    4.1547   -3.5185 C   0  0  0  0  0  0  0  0  0  0  0  0
   -8.3715    6.0161   -6.7287 N   0  0  0  0  0  0  0  0  0  0  0  0
   -9.3025    6.9896   -6.8788 C   0  0  0  0  0  0  0  0  0  0  0  0
  -10.1527    7.0309   -8.1231 C   0  0  0  0  0  0  0  0  0  0  0  0
  -11.1889    8.1505   -8.0322 C   0  0  0  0  0  0  0  0  0  0  0  0
  -12.1739    8.0364   -9.1457 C   0  0  0  0  0  0  0  0  0  0  0  0
  -12.7423    6.6806   -9.1509 N   0  0  0  0  0  0  0  0  0  0  0  0
  -14.0450    6.3745   -8.8801 C   0  0  0  0  0  0  0  0  0  0  0  0
  -14.8714    7.3613   -8.3875 C   0  0  0  0  0  0  0  0  0  0  0  0
  -15.6460    8.0496   -7.9641 C   0  0  0  0  0  0  0  0  0  0  0  0
  -16.4636    9.0531   -7.3141 C   0  0  0  0  0  0  0  0  0  0  0  0
  -16.8679    8.5471   -5.9838 N   0  0  0  0  0  0  0  0  0  0  0  0
  -15.7061    8.2499   -5.1016 C   0  0  0  0  0  0  0  0  0  0  0  0
  -17.8044    7.3982   -6.0389 C   0  0  0  0  0  0  0  0  0  0  0  0
  -15.6466   10.3628   -7.1351 C   0  0  0  0  0  0  0  0  0  0  0  0
  -17.6806    9.3121   -8.2094 C   0  0  0  0  0  0  0  0  0  0  0  0
  -14.4812    5.2363   -9.0187 O   0  0  0  0  0  0  0  0  0  0  0  0
  -11.8219    5.6026   -9.3262 C   0  0  0  0  0  0  0  0  0  0  0  0
  -10.9004    5.6912   -8.1517 C   0  0  0  0  0  0  0  0  0  0  0  0
   -9.5173    7.8013   -5.9575 O   0  0  0  0  0  0  0  0  0  0  0  0
   -7.8594    5.1477   -7.8287 C   0  0  0  0  0  0  0  0  0  0  0  0
   -5.5390    6.0782   -6.0121 O   0  0  0  0  0  0  0  0  0  0  0  0
   -5.6613    9.7053   -4.1090 C   0  0  0  0  0  0  0  0  0  0  0  0
   -6.1592   10.1976   -5.4462 C   0  0  0  0  0  0  0  0  0  0  0  0
   -4.9643   10.4537   -6.3217 C   0  0  0  0  0  0  0  0  0  0  0  0
   -5.3977   11.0549   -7.5947 N   0  0  0  0  0  0  0  0  0  0  0  0
   -6.2359   12.3109   -7.3281 C   0  0  0  0  0  0  0  0  0  0  0  0
   -7.4139   11.9592   -6.4722 C   0  0  0  0  0  0  0  0  0  0  0  0
   -6.9347   11.3880   -5.2417 O   0  0  0  0  0  0  0  0  0  0  0  0
   -5.1091    7.6675   -1.9020 O   0  0  0  0  0  0  0  0  0  0  0  0
   -2.2703    7.7791   -1.7539 C   0  0  0  0  0  0  0  0  0  0  0  0
   -1.4971    9.0739   -1.4602 C   0  0  0  0  0  0  0  0  0  0  0  0
   -0.7556    9.5474   -2.7030 C   0  0  0  0  0  0  0  0  0  0  0  0
   -0.7525    9.0493   -5.9236 O   0  0  0  0  0  0  0  0  0  0  0  0
   -2.2126   12.0597   -9.0956 C   0  0  0  0  0  0  0  0  0  0  0  0
   -2.1464   11.2422  -10.2194 C   0  0  0  0  0  0  0  0  0  0  0  0
   -3.1886   10.3108  -10.4696 C   0  0  0  0  0  0  0  0  0  0  0  0
   -4.2515   10.2550   -9.5658 C   0  0  0  0  0  0  0  0  0  0  0  0
   -4.3034   11.1223   -8.4611 C   0  0  0  0  0  0  0  0  0  0  0  0
   -3.2475   12.0104   -8.2265 C   0  0  0  0  0  0  0  0  0  0  0  0
   -9.3683    7.2149   -9.2646 F   0  0  0  0  0  0  0  0  0  0  0  0
  1  2  1  0  0  0  0
  2  3  1  0  0  0  0
  2  5  1  0  0  0  0
  3  4  1  0  0  0  0
  5  6  4  0  0  0  0
  5 10  4  0  0  0  0
  6  7  4  0  0  0  0
  7  8  4  0  0  0  0
  8  9  4  0  0  0  0
  9 10  4  0  0  0  0
 10 11  1  0  0  0  0
 11 12  4  0  0  0  0
 11 15  4  0  0  0  0
 12 13  1  0  0  0  0
 12 68  4  0  0  0  0
 13 14  1  0  0  0  0
 15 16  1  0  0  0  0
 15 67  4  0  0  0  0
 16 17  1  0  0  0  0
 17 18  1  0  0  0  0
 17 19  1  0  0  0  0
 17 20  1  0  0  0  0
 20 21  1  0  0  0  0
 21 22  1  0  0  0  0
 22 23  1  0  0  0  0
 22 66  2  0  0  0  0
 23 24  1  0  0  0  0
 23 65  1  0  0  0  0
 24 25  1  0  0  0  0
 25 26  1  0  0  0  0
 25 63  1  0  0  0  0
 26 27  1  0  0  0  0
 26 62  2  0  0  0  0
 27 28  1  0  0  0  0
 27 55  1  0  0  0  0
 28 29  1  0  0  0  0
 29 30  1  0  0  0  0
 29 54  2  0  0  0  0
 30 31  1  0  0  0  0
 30 34  1  0  0  0  0
 31 32  1  0  0  0  0
 31 33  1  0  0  0  0
 34 35  1  0  0  0  0
 34 53  1  0  0  0  0
 35 36  1  0  0  0  0
 35 52  2  0  0  0  0
 36 37  1  0  0  0  0
 36 51  1  0  0  0  0
 36 73  1  0  0  0  0
 37 38  1  0  0  0  0
 38 39  1  0  0  0  0
 39 40  1  0  0  0  0
 39 50  1  0  0  0  0
 40 41  1  0  0  0  0
 40 49  2  0  0  0  0
 41 42  1  0  0  0  0
 42 43  1  0  0  0  0
 43 44  1  0  0  0  0
 43 47  1  0  0  0  0
 43 48  1  0  0  0  0
 44 45  1  0  0  0  0
 44 46  1  0  0  0  0
 50 51  1  0  0  0  0
 55 56  1  0  0  0  0
 56 57  1  0  0  0  0
 56 61  1  0  0  0  0
 57 58  1  0  0  0  0
 58 59  1  0  0  0  0
 58 71  1  0  0  0  0
 59 60  1  0  0  0  0
 60 61  1  0  0  0  0
 63 64  1  0  0  0  0
 64 65  1  0  0  0  0
 67 68  4  0  0  0  0
 67 72  4  0  0  0  0
 68 69  4  0  0  0  0
 69 70  4  0  0  0  0
 70 71  4  0  0  0  0
 71 72  4  0  0  0  0
M  END
$$$$
