mol_bioactive_5
  PyMOL3.1          3D                             0

 73 79  0  0  0  0  0  0  0  0999 V2000
   -0.3071   15.1000  -13.1291 C   0  0  0  0  0  0  0  0  0  0  0  0
   -0.2607   14.9660  -11.6196 C   0  0  0  0  0  0  0  0  0  0  0  0
   -0.3685   16.1744  -10.9326 O   0  0  0  0  0  0  0  0  0  0  0  0
   -1.6614   16.6030  -10.5274 C   0  0  0  0  0  0  0  0  0  0  0  0
    0.9923   14.3214  -11.1708 C   0  0  0  0  0  0  0  0  0  0  0  0
    2.1465   14.8541  -11.5422 N   0  0  0  0  0  0  0  0  0  0  0  0
    3.3050   14.2922  -11.1615 C   0  0  0  0  0  0  0  0  0  0  0  0
    3.3201   13.1267  -10.3936 C   0  0  0  0  0  0  0  0  0  0  0  0
    2.1389   12.5748  -10.0295 C   0  0  0  0  0  0  0  0  0  0  0  0
    0.9762   13.1729  -10.4153 C   0  0  0  0  0  0  0  0  0  0  0  0
   -0.2687   12.6028   -9.9968 C   0  0  0  0  0  0  0  0  0  0  0  0
   -0.9248   11.6458  -10.6982 N   0  0  0  0  0  0  0  0  0  0  0  0
   -0.5202   11.0127  -11.9606 C   0  0  0  0  0  0  0  0  0  0  0  0
    0.0999    9.6395  -11.7027 C   0  0  0  0  0  0  0  0  0  0  0  0
   -1.0047   12.9639   -8.8899 C   0  0  0  0  0  0  0  0  0  0  0  0
   -0.7330   13.9856   -7.8377 C   0  0  0  0  0  0  0  0  0  0  0  0
   -0.0133   13.4722   -6.5617 C   0  0  0  0  0  0  0  0  0  0  0  0
   -0.6405   14.1570   -5.3494 C   0  0  0  0  0  0  0  0  0  0  0  0
    1.4867   13.8426   -6.6149 C   0  0  0  0  0  0  0  0  0  0  0  0
   -0.0445   12.0462   -6.3918 C   0  0  0  0  0  0  0  0  0  0  0  0
   -0.7182   11.4736   -5.2290 O   0  0  0  0  0  0  0  0  0  0  0  0
   -0.9532   10.0979   -5.0843 C   0  0  0  0  0  0  0  0  0  0  0  0
   -1.6789    9.7532   -3.8230 C   0  0  0  0  0  0  0  0  0  0  0  0
   -2.3965    8.5088   -4.0315 N   0  0  0  0  0  0  0  0  0  0  0  0
   -3.0784    8.0588   -2.9218 N   0  0  0  0  0  0  0  0  0  0  0  0
   -4.4425    7.9793   -2.9107 C   0  0  0  0  0  0  0  0  0  0  0  0
   -5.1793    8.4018   -4.1581 C   0  0  0  0  0  0  0  0  0  0  0  0
   -6.3640    7.5828   -4.4120 N   0  0  0  0  0  0  0  0  0  0  0  0
   -6.4322    6.5827   -5.3071 C   0  0  0  0  0  0  0  0  0  0  0  0
   -7.7922    5.9726   -5.4493 C   0  0  0  0  0  0  0  0  0  0  0  0
   -7.8477    4.4614   -5.0685 C   0  0  0  0  0  0  0  0  0  0  0  0
   -9.2524    3.9130   -5.2916 C   0  0  0  0  0  0  0  0  0  0  0  0
   -7.4605    4.2726   -3.5980 C   0  0  0  0  0  0  0  0  0  0  0  0
   -8.2891    6.1958   -6.7812 N   0  0  0  0  0  0  0  0  0  0  0  0
   -9.2554    7.1389   -6.9540 C   0  0  0  0  0  0  0  0  0  0  0  0
  -10.0057    7.2245   -8.2617 C   0  0  0  0  0  0  0  0  0  0  0  0
  -11.0864    8.2924   -8.2578 C   0  0  0  0  0  0  0  0  0  0  0  0
  -11.8861    8.2174   -9.5068 C   0  0  0  0  0  0  0  0  0  0  0  0
  -12.3706    6.8416   -9.7284 N   0  0  0  0  0  0  0  0  0  0  0  0
  -13.6654    6.4677   -9.8994 C   0  0  0  0  0  0  0  0  0  0  0  0
  -14.6778    7.4113   -9.8053 C   0  0  0  0  0  0  0  0  0  0  0  0
  -15.6258    8.0344   -9.7809 C   0  0  0  0  0  0  0  0  0  0  0  0
  -16.7064    8.9718   -9.6453 C   0  0  0  0  0  0  0  0  0  0  0  0
  -17.7360    8.4028   -8.7368 N   0  0  0  0  0  0  0  0  0  0  0  0
  -17.2137    7.9907   -7.4221 C   0  0  0  0  0  0  0  0  0  0  0  0
  -18.5758    7.3558   -9.3320 C   0  0  0  0  0  0  0  0  0  0  0  0
  -16.1993   10.3013   -9.0512 C   0  0  0  0  0  0  0  0  0  0  0  0
  -17.2642    9.2183  -11.0506 C   0  0  0  0  0  0  0  0  0  0  0  0
  -13.9570    5.3029  -10.1201 O   0  0  0  0  0  0  0  0  0  0  0  0
  -11.3966    5.7983   -9.7255 C   0  0  0  0  0  0  0  0  0  0  0  0
  -10.6959    5.8780   -8.4287 C   0  0  0  0  0  0  0  0  0  0  0  0
   -9.5586    7.9018   -6.0233 O   0  0  0  0  0  0  0  0  0  0  0  0
   -7.7067    5.3683   -7.8781 C   0  0  0  0  0  0  0  0  0  0  0  0
   -5.4667    6.2363   -5.9780 O   0  0  0  0  0  0  0  0  0  0  0  0
   -5.6001    9.8814   -3.9302 C   0  0  0  0  0  0  0  0  0  0  0  0
   -5.6826   10.7923   -5.1199 C   0  0  0  0  0  0  0  0  0  0  0  0
   -5.1771   10.2393   -6.4299 C   0  0  0  0  0  0  0  0  0  0  0  0
   -5.3944   11.1835   -7.5155 N   0  0  0  0  0  0  0  0  0  0  0  0
   -6.1181   12.4661   -7.1510 C   0  0  0  0  0  0  0  0  0  0  0  0
   -7.2297   12.2369   -6.2595 C   0  0  0  0  0  0  0  0  0  0  0  0
   -7.0361   11.2153   -5.2775 O   0  0  0  0  0  0  0  0  0  0  0  0
   -5.0717    7.6896   -1.9158 O   0  0  0  0  0  0  0  0  0  0  0  0
   -2.2429    7.8136   -1.7464 C   0  0  0  0  0  0  0  0  0  0  0  0
   -1.4608    9.1148   -1.4241 C   0  0  0  0  0  0  0  0  0  0  0  0
   -0.7170    9.6017   -2.6419 C   0  0  0  0  0  0  0  0  0  0  0  0
   -0.6454    9.1680   -5.8761 O   0  0  0  0  0  0  0  0  0  0  0  0
   -2.1146   12.1648   -8.9396 C   0  0  0  0  0  0  0  0  0  0  0  0
   -2.0387   11.3502  -10.0542 C   0  0  0  0  0  0  0  0  0  0  0  0
   -3.0841   10.4283  -10.3188 C   0  0  0  0  0  0  0  0  0  0  0  0
   -4.1559   10.3743   -9.4367 C   0  0  0  0  0  0  0  0  0  0  0  0
   -4.2300   11.2438   -8.3363 C   0  0  0  0  0  0  0  0  0  0  0  0
   -3.1469   12.1193   -8.0967 C   0  0  0  0  0  0  0  0  0  0  0  0
   -9.1185    7.4934   -9.3006 F   0  0  0  0  0  0  0  0  0  0  0  0
  1  2  1  0  0  0  0
  2  3  1  0  0  0  0
  2  5  1  0  0  0  0
  3  4  1  0  0  0  0
  5  6  4  0  0  0  0
  5 10  4  0  0  0  0
  6  7  4  0  0  0  0
  7  8  4  0  0  0  0
  8  9  4  0  0  0  0
  9 10  4  0  0  0  0
 10 11  1  0  0  0  0
 11 12  4  0  0  0  0
 11 15  4  0  0  0  0
 12 13  1  0  0  0  0
 12 68  4  0  0  0  0
 13 14  1  0  0  0  0
 15 16  1  0  0  0  0
 15 67  4  0  0  0  0
 16 17  1  0  0  0  0
 17 18  1  0  0  0  0
 17 19  1  0  0  0  0
 17 20  1  0  0  0  0
 20 21  1  0  0  0  0
 21 22  1  0  0  0  0
 22 23  1  0  0  0  0
 22 66  2  0  0  0  0
 23 24  1  0  0  0  0
 23 65  1  0  0  0  0
 24 25  1  0  0  0  0
 25 26  1  0  0  0  0
 25 63  1  0  0  0  0
 26 27  1  0  0  0  0
 26 62  2  0  0  0  0
 27 28  1  0  0  0  0
 27 55  1  0  0  0  0
 28 29  1  0  0  0  0
 29 30  1  0  0  0  0
 29 54  2  0  0  0  0
 30 31  1  0  0  0  0
 30 34  1  0  0  0  0
 31 32  1  0  0  0  0
 31 33  1  0  0  0  0
 34 35  1  0  0  0  0
 34 53  1  0  0  0  0
 35 36  1  0  0  0  0
 35 52  2  0  0  0  0
 36 37  1  0  0  0  0
 36 51  1  0  0  0  0
 36 73  1  0  0  0  0
 37 38  1  0  0  0  0
 38 39  1  0  0  0  0
 39 40  1  0  0  0  0
 39 50  1  0  0  0  0
 40 41  1  0  0  0  0
 40 49  2  0  0  0  0
 41 42  1  0  0  0  0
 42 43  1  0  0  0  0
 43 44  1  0  0  0  0
 43 47  1  0  0  0  0
 43 48  1  0  0  0  0
 44 45  1  0  0  0  0
 44 46  1  0  0  0  0
 50 51  1  0  0  0  0
 55 56  1  0  0  0  0
 56 57  1  0  0  0  0
 56 61  1  0  0  0  0
 57 58  1  0  0  0  0
 58 59  1  0  0  0  0
 58 71  1  0  0  0  0
 59 60  1  0  0  0  0
 60 61  1  0  0  0  0
 63 64  1  0  0  0  0
 64 65  1  0  0  0  0
 67 68  4  0  0  0  0
 67 72  4  0  0  0  0
 68 69  4  0  0  0  0
 69 70  4  0  0  0  0
 70 71  4  0  0  0  0
 71 72  4  0  0  0  0
M  END
$$$$
