mol_ETKDG3_95
  PyMOL3.1          3D                             0

 73 79  0  0  0  0  0  0  0  0999 V2000
    0.1639   15.6640  -12.7760 C   0  0  0  0  0  0  0  0  0  0  0  0
   -0.0692   15.0653  -11.4058 C   0  0  0  0  0  0  0  0  0  0  0  0
   -0.6515   15.9533  -10.5205 O   0  0  0  0  0  0  0  0  0  0  0  0
   -2.0680   16.1456  -10.5988 C   0  0  0  0  0  0  0  0  0  0  0  0
    1.1927   14.5806  -10.7953 C   0  0  0  0  0  0  0  0  0  0  0  0
    2.3262   15.2069  -11.0704 N   0  0  0  0  0  0  0  0  0  0  0  0
    3.4947   14.7863  -10.5483 C   0  0  0  0  0  0  0  0  0  0  0  0
    3.5447   13.6599   -9.7229 C   0  0  0  0  0  0  0  0  0  0  0  0
    2.3748   13.0132   -9.4499 C   0  0  0  0  0  0  0  0  0  0  0  0
    1.2024   13.4740   -9.9755 C   0  0  0  0  0  0  0  0  0  0  0  0
   -0.0320   12.8110   -9.6513 C   0  0  0  0  0  0  0  0  0  0  0  0
   -0.5793   11.8101  -10.3868 N   0  0  0  0  0  0  0  0  0  0  0  0
   -0.0130   11.1534  -11.5684 C   0  0  0  0  0  0  0  0  0  0  0  0
    0.5965    9.8118  -11.1591 C   0  0  0  0  0  0  0  0  0  0  0  0
   -0.8780   13.1260   -8.6041 C   0  0  0  0  0  0  0  0  0  0  0  0
   -0.7351   14.1198   -7.5073 C   0  0  0  0  0  0  0  0  0  0  0  0
   -0.0593   13.5716   -6.2231 C   0  0  0  0  0  0  0  0  0  0  0  0
   -0.7925   14.1567   -5.0156 C   0  0  0  0  0  0  0  0  0  0  0  0
    1.4114   14.0362   -6.1807 C   0  0  0  0  0  0  0  0  0  0  0  0
   -0.0207   12.1173   -6.1257 C   0  0  0  0  0  0  0  0  0  0  0  0
   -0.6965   11.4873   -5.0291 O   0  0  0  0  0  0  0  0  0  0  0  0
   -0.9814   10.1163   -5.0016 C   0  0  0  0  0  0  0  0  0  0  0  0
   -1.7011    9.7318   -3.7603 C   0  0  0  0  0  0  0  0  0  0  0  0
   -2.3893    8.4670   -3.9887 N   0  0  0  0  0  0  0  0  0  0  0  0
   -3.0639    8.0121   -2.8831 N   0  0  0  0  0  0  0  0  0  0  0  0
   -4.4234    7.9357   -2.8731 C   0  0  0  0  0  0  0  0  0  0  0  0
   -5.1441    8.2645   -4.1526 C   0  0  0  0  0  0  0  0  0  0  0  0
   -6.3005    7.4201   -4.3471 N   0  0  0  0  0  0  0  0  0  0  0  0
   -6.3553    6.4299   -5.2386 C   0  0  0  0  0  0  0  0  0  0  0  0
   -7.7157    5.8261   -5.3759 C   0  0  0  0  0  0  0  0  0  0  0  0
   -7.8337    4.3320   -4.9746 C   0  0  0  0  0  0  0  0  0  0  0  0
   -9.2538    3.8477   -5.2397 C   0  0  0  0  0  0  0  0  0  0  0  0
   -7.5014    4.1507   -3.4947 C   0  0  0  0  0  0  0  0  0  0  0  0
   -8.1384    6.0195   -6.7261 N   0  0  0  0  0  0  0  0  0  0  0  0
   -8.9657    7.0695   -6.9707 C   0  0  0  0  0  0  0  0  0  0  0  0
   -9.6700    7.2917   -8.2700 C   0  0  0  0  0  0  0  0  0  0  0  0
  -11.1356    7.0099   -7.9725 C   0  0  0  0  0  0  0  0  0  0  0  0
  -11.9435    7.1293   -9.1682 C   0  0  0  0  0  0  0  0  0  0  0  0
  -11.4007    6.2556  -10.1907 N   0  0  0  0  0  0  0  0  0  0  0  0
  -12.1174    5.1959  -10.6512 C   0  0  0  0  0  0  0  0  0  0  0  0
  -13.4140    5.0432  -10.1319 C   0  0  0  0  0  0  0  0  0  0  0  0
  -14.5133    4.9437   -9.7635 C   0  0  0  0  0  0  0  0  0  0  0  0
  -15.8263    4.8908   -9.1805 C   0  0  0  0  0  0  0  0  0  0  0  0
  -15.9395    5.8575   -8.0620 N   0  0  0  0  0  0  0  0  0  0  0  0
  -14.9929    5.6042   -6.9623 C   0  0  0  0  0  0  0  0  0  0  0  0
  -15.9033    7.2772   -8.5015 C   0  0  0  0  0  0  0  0  0  0  0  0
  -16.0807    3.4680   -8.6739 C   0  0  0  0  0  0  0  0  0  0  0  0
  -16.8516    5.2480  -10.2612 C   0  0  0  0  0  0  0  0  0  0  0  0
  -11.6562    4.4242  -11.4809 O   0  0  0  0  0  0  0  0  0  0  0  0
  -10.0547    6.5132  -10.6093 C   0  0  0  0  0  0  0  0  0  0  0  0
   -9.1923    6.4101   -9.4000 C   0  0  0  0  0  0  0  0  0  0  0  0
   -9.2425    7.8675   -6.0571 O   0  0  0  0  0  0  0  0  0  0  0  0
   -7.5914    5.0602   -7.7010 C   0  0  0  0  0  0  0  0  0  0  0  0
   -5.3891    6.1017   -5.9246 O   0  0  0  0  0  0  0  0  0  0  0  0
   -5.6387    9.7365   -4.0746 C   0  0  0  0  0  0  0  0  0  0  0  0
   -6.0862   10.2184   -5.4382 C   0  0  0  0  0  0  0  0  0  0  0  0
   -4.8516   10.5573   -6.2199 C   0  0  0  0  0  0  0  0  0  0  0  0
   -5.2145   11.1310   -7.5219 N   0  0  0  0  0  0  0  0  0  0  0  0
   -6.1429   12.3270   -7.3369 C   0  0  0  0  0  0  0  0  0  0  0  0
   -7.3613   11.8999   -6.5853 C   0  0  0  0  0  0  0  0  0  0  0  0
   -6.9503   11.3466   -5.3051 O   0  0  0  0  0  0  0  0  0  0  0  0
   -5.0604    7.6797   -1.8720 O   0  0  0  0  0  0  0  0  0  0  0  0
   -2.2287    7.7574   -1.7171 C   0  0  0  0  0  0  0  0  0  0  0  0
   -1.4708    9.0655   -1.3705 C   0  0  0  0  0  0  0  0  0  0  0  0
   -0.7345    9.5730   -2.5919 C   0  0  0  0  0  0  0  0  0  0  0  0
   -0.7242    9.2267   -5.8545 O   0  0  0  0  0  0  0  0  0  0  0  0
   -1.9539   12.2786   -8.7360 C   0  0  0  0  0  0  0  0  0  0  0  0
   -1.7428   11.4604   -9.8351 C   0  0  0  0  0  0  0  0  0  0  0  0
   -2.7193   10.4815  -10.1746 C   0  0  0  0  0  0  0  0  0  0  0  0
   -3.8514   10.3853   -9.3843 C   0  0  0  0  0  0  0  0  0  0  0  0
   -4.0514   11.2572   -8.2901 C   0  0  0  0  0  0  0  0  0  0  0  0
   -3.0719   12.1917   -7.9725 C   0  0  0  0  0  0  0  0  0  0  0  0
   -9.4453    8.5939   -8.6744 F   0  0  0  0  0  0  0  0  0  0  0  0
  1  2  1  0  0  0  0
  2  3  1  0  0  0  0
  2  5  1  0  0  0  0
  3  4  1  0  0  0  0
  5  6  4  0  0  0  0
  5 10  4  0  0  0  0
  6  7  4  0  0  0  0
  7  8  4  0  0  0  0
  8  9  4  0  0  0  0
  9 10  4  0  0  0  0
 10 11  1  0  0  0  0
 11 12  4  0  0  0  0
 11 15  4  0  0  0  0
 12 13  1  0  0  0  0
 12 68  4  0  0  0  0
 13 14  1  0  0  0  0
 15 16  1  0  0  0  0
 15 67  4  0  0  0  0
 16 17  1  0  0  0  0
 17 18  1  0  0  0  0
 17 19  1  0  0  0  0
 17 20  1  0  0  0  0
 20 21  1  0  0  0  0
 21 22  1  0  0  0  0
 22 23  1  0  0  0  0
 22 66  2  0  0  0  0
 23 24  1  0  0  0  0
 23 65  1  0  0  0  0
 24 25  1  0  0  0  0
 25 26  1  0  0  0  0
 25 63  1  0  0  0  0
 26 27  1  0  0  0  0
 26 62  2  0  0  0  0
 27 28  1  0  0  0  0
 27 55  1  0  0  0  0
 28 29  1  0  0  0  0
 29 30  1  0  0  0  0
 29 54  2  0  0  0  0
 30 31  1  0  0  0  0
 30 34  1  0  0  0  0
 31 32  1  0  0  0  0
 31 33  1  0  0  0  0
 34 35  1  0  0  0  0
 34 53  1  0  0  0  0
 35 36  1  0  0  0  0
 35 52  2  0  0  0  0
 36 37  1  0  0  0  0
 36 51  1  0  0  0  0
 36 73  1  0  0  0  0
 37 38  1  0  0  0  0
 38 39  1  0  0  0  0
 39 40  1  0  0  0  0
 39 50  1  0  0  0  0
 40 41  1  0  0  0  0
 40 49  2  0  0  0  0
 41 42  1  0  0  0  0
 42 43  1  0  0  0  0
 43 44  1  0  0  0  0
 43 47  1  0  0  0  0
 43 48  1  0  0  0  0
 44 45  1  0  0  0  0
 44 46  1  0  0  0  0
 50 51  1  0  0  0  0
 55 56  1  0  0  0  0
 56 57  1  0  0  0  0
 56 61  1  0  0  0  0
 57 58  1  0  0  0  0
 58 59  1  0  0  0  0
 58 71  1  0  0  0  0
 59 60  1  0  0  0  0
 60 61  1  0  0  0  0
 63 64  1  0  0  0  0
 64 65  1  0  0  0  0
 67 68  4  0  0  0  0
 67 72  4  0  0  0  0
 68 69  4  0  0  0  0
 69 70  4  0  0  0  0
 70 71  4  0  0  0  0
 71 72  4  0  0  0  0
M  END
$$$$
