mol_ETKDG4_119
  PyMOL3.1          3D                             0

 73 79  0  0  0  0  0  0  0  0999 V2000
    0.0676   16.4670  -11.5031 C   0  0  0  0  0  0  0  0  0  0  0  0
    0.0218   14.9575  -11.5603 C   0  0  0  0  0  0  0  0  0  0  0  0
   -0.2891   14.4429  -12.8309 O   0  0  0  0  0  0  0  0  0  0  0  0
   -1.6534   14.4078  -13.2100 C   0  0  0  0  0  0  0  0  0  0  0  0
    1.2941   14.3322  -11.1381 C   0  0  0  0  0  0  0  0  0  0  0  0
    2.4415   14.9013  -11.4887 N   0  0  0  0  0  0  0  0  0  0  0  0
    3.6148   14.3373  -11.1264 C   0  0  0  0  0  0  0  0  0  0  0  0
    3.6504   13.1770  -10.3698 C   0  0  0  0  0  0  0  0  0  0  0  0
    2.4655   12.5947  -10.0128 C   0  0  0  0  0  0  0  0  0  0  0  0
    1.2920   13.1609  -10.4132 C   0  0  0  0  0  0  0  0  0  0  0  0
    0.0476   12.5469  -10.0330 C   0  0  0  0  0  0  0  0  0  0  0  0
   -0.5704   11.5561  -10.7344 N   0  0  0  0  0  0  0  0  0  0  0  0
   -0.0896   10.8744  -11.9449 C   0  0  0  0  0  0  0  0  0  0  0  0
    0.4648    9.4913  -11.5782 C   0  0  0  0  0  0  0  0  0  0  0  0
   -0.7495   12.9228   -8.9533 C   0  0  0  0  0  0  0  0  0  0  0  0
   -0.5411   13.9577   -7.8978 C   0  0  0  0  0  0  0  0  0  0  0  0
    0.1190   13.4568   -6.5806 C   0  0  0  0  0  0  0  0  0  0  0  0
   -0.5541   14.1606   -5.3975 C   0  0  0  0  0  0  0  0  0  0  0  0
    1.6143   13.8257   -6.5762 C   0  0  0  0  0  0  0  0  0  0  0  0
    0.0781   12.0174   -6.3773 C   0  0  0  0  0  0  0  0  0  0  0  0
   -0.6222   11.4865   -5.2197 O   0  0  0  0  0  0  0  0  0  0  0  0
   -0.9190   10.1148   -5.0780 C   0  0  0  0  0  0  0  0  0  0  0  0
   -1.6455    9.7950   -3.8065 C   0  0  0  0  0  0  0  0  0  0  0  0
   -2.3550    8.5385   -4.0019 N   0  0  0  0  0  0  0  0  0  0  0  0
   -3.0442    8.1066   -2.8858 N   0  0  0  0  0  0  0  0  0  0  0  0
   -4.4072    8.0272   -2.8939 C   0  0  0  0  0  0  0  0  0  0  0  0
   -5.1085    8.3474   -4.1826 C   0  0  0  0  0  0  0  0  0  0  0  0
   -6.2936    7.5504   -4.3836 N   0  0  0  0  0  0  0  0  0  0  0  0
   -6.3853    6.5799   -5.3048 C   0  0  0  0  0  0  0  0  0  0  0  0
   -7.7462    6.0021   -5.4502 C   0  0  0  0  0  0  0  0  0  0  0  0
   -7.8333    4.4872   -5.0727 C   0  0  0  0  0  0  0  0  0  0  0  0
   -9.2386    3.9634   -5.3290 C   0  0  0  0  0  0  0  0  0  0  0  0
   -7.4829    4.2942   -3.5867 C   0  0  0  0  0  0  0  0  0  0  0  0
   -8.1911    6.2286   -6.8047 N   0  0  0  0  0  0  0  0  0  0  0  0
   -9.1151    7.2002   -7.0083 C   0  0  0  0  0  0  0  0  0  0  0  0
   -9.7933    7.3068   -8.3517 C   0  0  0  0  0  0  0  0  0  0  0  0
  -10.8501    8.4073   -8.3765 C   0  0  0  0  0  0  0  0  0  0  0  0
  -11.5981    8.3469   -9.6613 C   0  0  0  0  0  0  0  0  0  0  0  0
  -12.1341    6.9923   -9.8210 N   0  0  0  0  0  0  0  0  0  0  0  0
  -13.4407    6.6703   -9.8067 C   0  0  0  0  0  0  0  0  0  0  0  0
  -14.3627    7.6726   -9.5439 C   0  0  0  0  0  0  0  0  0  0  0  0
  -15.2026    8.4078   -9.3300 C   0  0  0  0  0  0  0  0  0  0  0  0
  -16.1798    9.3851   -8.9887 C   0  0  0  0  0  0  0  0  0  0  0  0
  -16.0044    9.8448   -7.6060 N   0  0  0  0  0  0  0  0  0  0  0  0
  -15.4945    8.8582   -6.6573 C   0  0  0  0  0  0  0  0  0  0  0  0
  -15.4907   11.1656   -7.3821 C   0  0  0  0  0  0  0  0  0  0  0  0
  -17.5759    8.7715   -9.1047 C   0  0  0  0  0  0  0  0  0  0  0  0
  -16.0284   10.5545   -9.9742 C   0  0  0  0  0  0  0  0  0  0  0  0
  -13.8128    5.5205   -9.9899 O   0  0  0  0  0  0  0  0  0  0  0  0
  -11.1821    5.9241   -9.8711 C   0  0  0  0  0  0  0  0  0  0  0  0
  -10.4950    5.9651   -8.5521 C   0  0  0  0  0  0  0  0  0  0  0  0
   -9.4415    7.9689   -6.0879 O   0  0  0  0  0  0  0  0  0  0  0  0
   -7.5842    5.3815   -7.8796 C   0  0  0  0  0  0  0  0  0  0  0  0
   -5.4283    6.2494   -5.9968 O   0  0  0  0  0  0  0  0  0  0  0  0
   -5.5364    9.8471   -4.1273 C   0  0  0  0  0  0  0  0  0  0  0  0
   -5.9650   10.3341   -5.4945 C   0  0  0  0  0  0  0  0  0  0  0  0
   -4.7277   10.5731   -6.3267 C   0  0  0  0  0  0  0  0  0  0  0  0
   -5.0966   11.1490   -7.6333 N   0  0  0  0  0  0  0  0  0  0  0  0
   -5.9451   12.4086   -7.4348 C   0  0  0  0  0  0  0  0  0  0  0  0
   -7.1578   12.0727   -6.6268 C   0  0  0  0  0  0  0  0  0  0  0  0
   -6.7399   11.5240   -5.3508 O   0  0  0  0  0  0  0  0  0  0  0  0
   -5.0548    7.7774   -1.8948 O   0  0  0  0  0  0  0  0  0  0  0  0
   -2.2226    7.8667   -1.7019 C   0  0  0  0  0  0  0  0  0  0  0  0
   -1.4345    9.1730   -1.3910 C   0  0  0  0  0  0  0  0  0  0  0  0
   -0.6862    9.6495   -2.6232 C   0  0  0  0  0  0  0  0  0  0  0  0
   -0.6752    9.1731   -5.8763 O   0  0  0  0  0  0  0  0  0  0  0  0
   -1.8493   12.1100   -9.0255 C   0  0  0  0  0  0  0  0  0  0  0  0
   -1.7187   11.2607  -10.1230 C   0  0  0  0  0  0  0  0  0  0  0  0
   -2.7514   10.3231  -10.3899 C   0  0  0  0  0  0  0  0  0  0  0  0
   -3.8521   10.2883   -9.5428 C   0  0  0  0  0  0  0  0  0  0  0  0
   -3.9664   11.1904   -8.4604 C   0  0  0  0  0  0  0  0  0  0  0  0
   -2.9252   12.0859   -8.2125 C   0  0  0  0  0  0  0  0  0  0  0  0
   -8.8483    7.5615   -9.3425 F   0  0  0  0  0  0  0  0  0  0  0  0
  1  2  1  0  0  0  0
  2  3  1  0  0  0  0
  2  5  1  0  0  0  0
  3  4  1  0  0  0  0
  5  6  4  0  0  0  0
  5 10  4  0  0  0  0
  6  7  4  0  0  0  0
  7  8  4  0  0  0  0
  8  9  4  0  0  0  0
  9 10  4  0  0  0  0
 10 11  1  0  0  0  0
 11 12  4  0  0  0  0
 11 15  4  0  0  0  0
 12 13  1  0  0  0  0
 12 68  4  0  0  0  0
 13 14  1  0  0  0  0
 15 16  1  0  0  0  0
 15 67  4  0  0  0  0
 16 17  1  0  0  0  0
 17 18  1  0  0  0  0
 17 19  1  0  0  0  0
 17 20  1  0  0  0  0
 20 21  1  0  0  0  0
 21 22  1  0  0  0  0
 22 23  1  0  0  0  0
 22 66  2  0  0  0  0
 23 24  1  0  0  0  0
 23 65  1  0  0  0  0
 24 25  1  0  0  0  0
 25 26  1  0  0  0  0
 25 63  1  0  0  0  0
 26 27  1  0  0  0  0
 26 62  2  0  0  0  0
 27 28  1  0  0  0  0
 27 55  1  0  0  0  0
 28 29  1  0  0  0  0
 29 30  1  0  0  0  0
 29 54  2  0  0  0  0
 30 31  1  0  0  0  0
 30 34  1  0  0  0  0
 31 32  1  0  0  0  0
 31 33  1  0  0  0  0
 34 35  1  0  0  0  0
 34 53  1  0  0  0  0
 35 36  1  0  0  0  0
 35 52  2  0  0  0  0
 36 37  1  0  0  0  0
 36 51  1  0  0  0  0
 36 73  1  0  0  0  0
 37 38  1  0  0  0  0
 38 39  1  0  0  0  0
 39 40  1  0  0  0  0
 39 50  1  0  0  0  0
 40 41  1  0  0  0  0
 40 49  2  0  0  0  0
 41 42  1  0  0  0  0
 42 43  1  0  0  0  0
 43 44  1  0  0  0  0
 43 47  1  0  0  0  0
 43 48  1  0  0  0  0
 44 45  1  0  0  0  0
 44 46  1  0  0  0  0
 50 51  1  0  0  0  0
 55 56  1  0  0  0  0
 56 57  1  0  0  0  0
 56 61  1  0  0  0  0
 57 58  1  0  0  0  0
 58 59  1  0  0  0  0
 58 71  1  0  0  0  0
 59 60  1  0  0  0  0
 60 61  1  0  0  0  0
 63 64  1  0  0  0  0
 64 65  1  0  0  0  0
 67 68  4  0  0  0  0
 67 72  4  0  0  0  0
 68 69  4  0  0  0  0
 69 70  4  0  0  0  0
 70 71  4  0  0  0  0
 71 72  4  0  0  0  0
M  END
$$$$
