mol_ETKDG3_92
  PyMOL3.1          3D                             0

 73 79  0  0  0  0  0  0  0  0999 V2000
   -0.3516   14.9342  -13.5297 C   0  0  0  0  0  0  0  0  0  0  0  0
   -0.5039   14.4633  -12.0969 C   0  0  0  0  0  0  0  0  0  0  0  0
   -0.9891   15.4586  -11.2547 O   0  0  0  0  0  0  0  0  0  0  0  0
   -2.4047   15.6724  -11.2310 C   0  0  0  0  0  0  0  0  0  0  0  0
    0.7898   13.9940  -11.5418 C   0  0  0  0  0  0  0  0  0  0  0  0
    1.9075   14.6100  -11.8993 N   0  0  0  0  0  0  0  0  0  0  0  0
    3.1048   14.1929  -11.4329 C   0  0  0  0  0  0  0  0  0  0  0  0
    3.1985   13.0895  -10.5736 C   0  0  0  0  0  0  0  0  0  0  0  0
    2.0473   12.4522  -10.2151 C   0  0  0  0  0  0  0  0  0  0  0  0
    0.8538   12.9089  -10.6895 C   0  0  0  0  0  0  0  0  0  0  0  0
   -0.3493   12.2708  -10.2605 C   0  0  0  0  0  0  0  0  0  0  0  0
   -0.9451   11.2386  -10.9172 N   0  0  0  0  0  0  0  0  0  0  0  0
   -0.4762   10.5423  -12.1227 C   0  0  0  0  0  0  0  0  0  0  0  0
    0.1633    9.2083  -11.7364 C   0  0  0  0  0  0  0  0  0  0  0  0
   -1.1175   12.6508   -9.1764 C   0  0  0  0  0  0  0  0  0  0  0  0
   -0.9168   13.7313   -8.1456 C   0  0  0  0  0  0  0  0  0  0  0  0
   -0.2086   13.2843   -6.8271 C   0  0  0  0  0  0  0  0  0  0  0  0
   -0.8797   14.0109   -5.6569 C   0  0  0  0  0  0  0  0  0  0  0  0
    1.2796   13.7023   -6.8741 C   0  0  0  0  0  0  0  0  0  0  0  0
   -0.1960   11.8769   -6.5849 C   0  0  0  0  0  0  0  0  0  0  0  0
   -0.8025   11.3604   -5.3605 O   0  0  0  0  0  0  0  0  0  0  0  0
   -1.0506    9.9935   -5.1615 C   0  0  0  0  0  0  0  0  0  0  0  0
   -1.7411    9.6953   -3.8787 C   0  0  0  0  0  0  0  0  0  0  0  0
   -2.4226    8.4199   -4.0292 N   0  0  0  0  0  0  0  0  0  0  0  0
   -3.0853    8.0075   -2.9025 N   0  0  0  0  0  0  0  0  0  0  0  0
   -4.4436    7.8966   -2.8941 C   0  0  0  0  0  0  0  0  0  0  0  0
   -5.1602    8.1703   -4.1872 C   0  0  0  0  0  0  0  0  0  0  0  0
   -6.3386    7.3421   -4.3601 N   0  0  0  0  0  0  0  0  0  0  0  0
   -6.4339    6.3664   -5.2713 C   0  0  0  0  0  0  0  0  0  0  0  0
   -7.8214    5.8188   -5.4536 C   0  0  0  0  0  0  0  0  0  0  0  0
   -7.9641    4.3262   -5.0758 C   0  0  0  0  0  0  0  0  0  0  0  0
   -9.4009    3.8670   -5.3022 C   0  0  0  0  0  0  0  0  0  0  0  0
   -7.5691    4.1225   -3.6092 C   0  0  0  0  0  0  0  0  0  0  0  0
   -8.1758    6.0871   -6.8320 N   0  0  0  0  0  0  0  0  0  0  0  0
   -8.8838    7.2186   -7.0978 C   0  0  0  0  0  0  0  0  0  0  0  0
   -9.2130    7.5669   -8.5272 C   0  0  0  0  0  0  0  0  0  0  0  0
  -10.4097    8.4856   -8.6603 C   0  0  0  0  0  0  0  0  0  0  0  0
  -10.6071    8.7663  -10.0978 C   0  0  0  0  0  0  0  0  0  0  0  0
   -9.3649    9.3007  -10.6744 N   0  0  0  0  0  0  0  0  0  0  0  0
   -9.3118   10.4695  -11.3187 C   0  0  0  0  0  0  0  0  0  0  0  0
  -10.5098   11.1173  -11.5510 C   0  0  0  0  0  0  0  0  0  0  0  0
  -11.4805   11.6584  -11.8407 C   0  0  0  0  0  0  0  0  0  0  0  0
  -12.7315   12.2973  -12.0924 C   0  0  0  0  0  0  0  0  0  0  0  0
  -13.8208   11.5246  -11.4727 N   0  0  0  0  0  0  0  0  0  0  0  0
  -13.6861   11.4156  -10.0067 C   0  0  0  0  0  0  0  0  0  0  0  0
  -14.0655   10.2122  -12.1152 C   0  0  0  0  0  0  0  0  0  0  0  0
  -12.7011   13.7162  -11.5011 C   0  0  0  0  0  0  0  0  0  0  0  0
  -12.9263   12.3610  -13.6093 C   0  0  0  0  0  0  0  0  0  0  0  0
   -8.2537   10.9294  -11.7038 O   0  0  0  0  0  0  0  0  0  0  0  0
   -8.1660    8.5369  -10.5350 C   0  0  0  0  0  0  0  0  0  0  0  0
   -7.9691    8.2444   -9.0974 C   0  0  0  0  0  0  0  0  0  0  0  0
   -9.2382    7.9701   -6.1799 O   0  0  0  0  0  0  0  0  0  0  0  0
   -7.6396    5.1596   -7.8600 C   0  0  0  0  0  0  0  0  0  0  0  0
   -5.4763    6.0160   -5.9537 O   0  0  0  0  0  0  0  0  0  0  0  0
   -5.6186    9.6524   -4.1735 C   0  0  0  0  0  0  0  0  0  0  0  0
   -6.1212   10.0534   -5.5445 C   0  0  0  0  0  0  0  0  0  0  0  0
   -4.9201   10.3306   -6.4044 C   0  0  0  0  0  0  0  0  0  0  0  0
   -5.3585   10.7807   -7.7406 N   0  0  0  0  0  0  0  0  0  0  0  0
   -6.2846   11.9866   -7.6138 C   0  0  0  0  0  0  0  0  0  0  0  0
   -7.4617   11.6215   -6.7551 C   0  0  0  0  0  0  0  0  0  0  0  0
   -6.9696   11.1937   -5.4510 O   0  0  0  0  0  0  0  0  0  0  0  0
   -5.0752    7.6669   -1.8878 O   0  0  0  0  0  0  0  0  0  0  0  0
   -2.2436    7.8165   -1.7277 C   0  0  0  0  0  0  0  0  0  0  0  0
   -1.4887    9.1462   -1.4525 C   0  0  0  0  0  0  0  0  0  0  0  0
   -0.7633    9.6020   -2.7089 C   0  0  0  0  0  0  0  0  0  0  0  0
   -0.7900    9.0222   -5.9249 O   0  0  0  0  0  0  0  0  0  0  0  0
   -2.1909   11.8008   -9.2040 C   0  0  0  0  0  0  0  0  0  0  0  0
   -2.0629   10.9256  -10.2807 C   0  0  0  0  0  0  0  0  0  0  0  0
   -3.0710    9.9433  -10.5129 C   0  0  0  0  0  0  0  0  0  0  0  0
   -4.1449    9.9049   -9.6469 C   0  0  0  0  0  0  0  0  0  0  0  0
   -4.2551   10.8366   -8.5868 C   0  0  0  0  0  0  0  0  0  0  0  0
   -3.2500   11.7644   -8.3705 C   0  0  0  0  0  0  0  0  0  0  0  0
   -9.5143    6.4300   -9.2454 F   0  0  0  0  0  0  0  0  0  0  0  0
  1  2  1  0  0  0  0
  2  3  1  0  0  0  0
  2  5  1  0  0  0  0
  3  4  1  0  0  0  0
  5  6  4  0  0  0  0
  5 10  4  0  0  0  0
  6  7  4  0  0  0  0
  7  8  4  0  0  0  0
  8  9  4  0  0  0  0
  9 10  4  0  0  0  0
 10 11  1  0  0  0  0
 11 12  4  0  0  0  0
 11 15  4  0  0  0  0
 12 13  1  0  0  0  0
 12 68  4  0  0  0  0
 13 14  1  0  0  0  0
 15 16  1  0  0  0  0
 15 67  4  0  0  0  0
 16 17  1  0  0  0  0
 17 18  1  0  0  0  0
 17 19  1  0  0  0  0
 17 20  1  0  0  0  0
 20 21  1  0  0  0  0
 21 22  1  0  0  0  0
 22 23  1  0  0  0  0
 22 66  2  0  0  0  0
 23 24  1  0  0  0  0
 23 65  1  0  0  0  0
 24 25  1  0  0  0  0
 25 26  1  0  0  0  0
 25 63  1  0  0  0  0
 26 27  1  0  0  0  0
 26 62  2  0  0  0  0
 27 28  1  0  0  0  0
 27 55  1  0  0  0  0
 28 29  1  0  0  0  0
 29 30  1  0  0  0  0
 29 54  2  0  0  0  0
 30 31  1  0  0  0  0
 30 34  1  0  0  0  0
 31 32  1  0  0  0  0
 31 33  1  0  0  0  0
 34 35  1  0  0  0  0
 34 53  1  0  0  0  0
 35 36  1  0  0  0  0
 35 52  2  0  0  0  0
 36 37  1  0  0  0  0
 36 51  1  0  0  0  0
 36 73  1  0  0  0  0
 37 38  1  0  0  0  0
 38 39  1  0  0  0  0
 39 40  1  0  0  0  0
 39 50  1  0  0  0  0
 40 41  1  0  0  0  0
 40 49  2  0  0  0  0
 41 42  1  0  0  0  0
 42 43  1  0  0  0  0
 43 44  1  0  0  0  0
 43 47  1  0  0  0  0
 43 48  1  0  0  0  0
 44 45  1  0  0  0  0
 44 46  1  0  0  0  0
 50 51  1  0  0  0  0
 55 56  1  0  0  0  0
 56 57  1  0  0  0  0
 56 61  1  0  0  0  0
 57 58  1  0  0  0  0
 58 59  1  0  0  0  0
 58 71  1  0  0  0  0
 59 60  1  0  0  0  0
 60 61  1  0  0  0  0
 63 64  1  0  0  0  0
 64 65  1  0  0  0  0
 67 68  4  0  0  0  0
 67 72  4  0  0  0  0
 68 69  4  0  0  0  0
 69 70  4  0  0  0  0
 70 71  4  0  0  0  0
 71 72  4  0  0  0  0
M  END
$$$$
