mol_ETKDG1_47
  PyMOL3.1          3D                             0

 73 79  0  0  0  0  0  0  0  0999 V2000
   -0.1575   16.1489  -12.1116 C   0  0  0  0  0  0  0  0  0  0  0  0
   -0.3382   14.7210  -11.6560 C   0  0  0  0  0  0  0  0  0  0  0  0
   -0.8791   13.9285  -12.6639 O   0  0  0  0  0  0  0  0  0  0  0  0
   -2.2994   13.9596  -12.8091 C   0  0  0  0  0  0  0  0  0  0  0  0
    0.9473   14.1006  -11.2260 C   0  0  0  0  0  0  0  0  0  0  0  0
    2.0877   14.6762  -11.5631 N   0  0  0  0  0  0  0  0  0  0  0  0
    3.2638   14.1351  -11.2207 C   0  0  0  0  0  0  0  0  0  0  0  0
    3.3230   12.9601  -10.4779 C   0  0  0  0  0  0  0  0  0  0  0  0
    2.1646   12.3631  -10.1255 C   0  0  0  0  0  0  0  0  0  0  0  0
    0.9787   12.9151  -10.5134 C   0  0  0  0  0  0  0  0  0  0  0  0
   -0.2445   12.2860  -10.1226 C   0  0  0  0  0  0  0  0  0  0  0  0
   -0.8504   11.2684  -10.8070 N   0  0  0  0  0  0  0  0  0  0  0  0
   -0.3702   10.5794  -12.0139 C   0  0  0  0  0  0  0  0  0  0  0  0
    0.2740    9.2379  -11.6368 C   0  0  0  0  0  0  0  0  0  0  0  0
   -1.0314   12.6562   -9.0428 C   0  0  0  0  0  0  0  0  0  0  0  0
   -0.8268   13.7139   -8.0070 C   0  0  0  0  0  0  0  0  0  0  0  0
   -0.0947   13.2689   -6.7116 C   0  0  0  0  0  0  0  0  0  0  0  0
   -0.7379   13.9638   -5.5119 C   0  0  0  0  0  0  0  0  0  0  0  0
    1.3975   13.6651   -6.7532 C   0  0  0  0  0  0  0  0  0  0  0  0
   -0.0792   11.8598   -6.4783 C   0  0  0  0  0  0  0  0  0  0  0  0
   -0.7132   11.3351   -5.2772 O   0  0  0  0  0  0  0  0  0  0  0  0
   -0.9962    9.9739   -5.1132 C   0  0  0  0  0  0  0  0  0  0  0  0
   -1.7115    9.6749   -3.8431 C   0  0  0  0  0  0  0  0  0  0  0  0
   -2.4000    8.4072   -4.0070 N   0  0  0  0  0  0  0  0  0  0  0  0
   -3.0671    7.9937   -2.8824 N   0  0  0  0  0  0  0  0  0  0  0  0
   -4.4214    7.8910   -2.8807 C   0  0  0  0  0  0  0  0  0  0  0  0
   -5.1391    8.1609   -4.1797 C   0  0  0  0  0  0  0  0  0  0  0  0
   -6.3147    7.3401   -4.3513 N   0  0  0  0  0  0  0  0  0  0  0  0
   -6.4134    6.3701   -5.2613 C   0  0  0  0  0  0  0  0  0  0  0  0
   -7.7840    5.7838   -5.3686 C   0  0  0  0  0  0  0  0  0  0  0  0
   -7.8540    4.2788   -4.9921 C   0  0  0  0  0  0  0  0  0  0  0  0
   -9.2619    3.7504   -5.2078 C   0  0  0  0  0  0  0  0  0  0  0  0
   -7.4583    4.0940   -3.5196 C   0  0  0  0  0  0  0  0  0  0  0  0
   -8.3026    6.0346   -6.6901 N   0  0  0  0  0  0  0  0  0  0  0  0
   -9.1487    7.0839   -6.8330 C   0  0  0  0  0  0  0  0  0  0  0  0
   -9.9797    7.2005   -8.0809 C   0  0  0  0  0  0  0  0  0  0  0  0
  -10.7910    8.4929   -8.0725 C   0  0  0  0  0  0  0  0  0  0  0  0
  -11.7468    8.4789   -9.1956 C   0  0  0  0  0  0  0  0  0  0  0  0
  -12.5512    7.2612   -9.0946 N   0  0  0  0  0  0  0  0  0  0  0  0
  -13.8547    7.2453   -8.7897 C   0  0  0  0  0  0  0  0  0  0  0  0
  -14.4727    8.4498   -8.4819 C   0  0  0  0  0  0  0  0  0  0  0  0
  -15.0766    9.3803   -8.2051 C   0  0  0  0  0  0  0  0  0  0  0  0
  -15.7270   10.5856   -7.7974 C   0  0  0  0  0  0  0  0  0  0  0  0
  -15.0311   11.2167   -6.6713 N   0  0  0  0  0  0  0  0  0  0  0  0
  -14.4453   10.2866   -5.7087 C   0  0  0  0  0  0  0  0  0  0  0  0
  -14.1225   12.3038   -6.9878 C   0  0  0  0  0  0  0  0  0  0  0  0
  -17.1580   10.2529   -7.3254 C   0  0  0  0  0  0  0  0  0  0  0  0
  -15.7730   11.5275   -9.0005 C   0  0  0  0  0  0  0  0  0  0  0  0
  -14.4918    6.2026   -8.7549 O   0  0  0  0  0  0  0  0  0  0  0  0
  -11.8492    6.0134   -9.1801 C   0  0  0  0  0  0  0  0  0  0  0  0
  -10.9262    6.0081   -8.0221 C   0  0  0  0  0  0  0  0  0  0  0  0
   -9.3044    7.8997   -5.9147 O   0  0  0  0  0  0  0  0  0  0  0  0
   -7.8675    5.1391   -7.7871 C   0  0  0  0  0  0  0  0  0  0  0  0
   -5.4805    6.0252   -5.9782 O   0  0  0  0  0  0  0  0  0  0  0  0
   -5.6118    9.6433   -4.1560 C   0  0  0  0  0  0  0  0  0  0  0  0
   -6.1059   10.0568   -5.5280 C   0  0  0  0  0  0  0  0  0  0  0  0
   -4.9013   10.3271   -6.3698 C   0  0  0  0  0  0  0  0  0  0  0  0
   -5.3176   10.7940   -7.6975 N   0  0  0  0  0  0  0  0  0  0  0  0
   -6.2348   12.0021   -7.5691 C   0  0  0  0  0  0  0  0  0  0  0  0
   -7.4245   11.6408   -6.7114 C   0  0  0  0  0  0  0  0  0  0  0  0
   -6.9535   11.1908   -5.4249 O   0  0  0  0  0  0  0  0  0  0  0  0
   -5.0570    7.6585   -1.8858 O   0  0  0  0  0  0  0  0  0  0  0  0
   -2.2361    7.8012   -1.7036 C   0  0  0  0  0  0  0  0  0  0  0  0
   -1.4758    9.1236   -1.4208 C   0  0  0  0  0  0  0  0  0  0  0  0
   -0.7411    9.5888   -2.6654 C   0  0  0  0  0  0  0  0  0  0  0  0
   -0.7480    9.0101   -5.8831 O   0  0  0  0  0  0  0  0  0  0  0  0
   -2.1157   11.8201   -9.1036 C   0  0  0  0  0  0  0  0  0  0  0  0
   -1.9779   10.9656  -10.1881 C   0  0  0  0  0  0  0  0  0  0  0  0
   -2.9843   10.0024  -10.4468 C   0  0  0  0  0  0  0  0  0  0  0  0
   -4.0731    9.9520   -9.5965 C   0  0  0  0  0  0  0  0  0  0  0  0
   -4.2005   10.8616   -8.5247 C   0  0  0  0  0  0  0  0  0  0  0  0
   -3.1912   11.7818   -8.2878 C   0  0  0  0  0  0  0  0  0  0  0  0
   -9.1902    7.1711   -9.2231 F   0  0  0  0  0  0  0  0  0  0  0  0
  1  2  1  0  0  0  0
  2  3  1  0  0  0  0
  2  5  1  0  0  0  0
  3  4  1  0  0  0  0
  5  6  4  0  0  0  0
  5 10  4  0  0  0  0
  6  7  4  0  0  0  0
  7  8  4  0  0  0  0
  8  9  4  0  0  0  0
  9 10  4  0  0  0  0
 10 11  1  0  0  0  0
 11 12  4  0  0  0  0
 11 15  4  0  0  0  0
 12 13  1  0  0  0  0
 12 68  4  0  0  0  0
 13 14  1  0  0  0  0
 15 16  1  0  0  0  0
 15 67  4  0  0  0  0
 16 17  1  0  0  0  0
 17 18  1  0  0  0  0
 17 19  1  0  0  0  0
 17 20  1  0  0  0  0
 20 21  1  0  0  0  0
 21 22  1  0  0  0  0
 22 23  1  0  0  0  0
 22 66  2  0  0  0  0
 23 24  1  0  0  0  0
 23 65  1  0  0  0  0
 24 25  1  0  0  0  0
 25 26  1  0  0  0  0
 25 63  1  0  0  0  0
 26 27  1  0  0  0  0
 26 62  2  0  0  0  0
 27 28  1  0  0  0  0
 27 55  1  0  0  0  0
 28 29  1  0  0  0  0
 29 30  1  0  0  0  0
 29 54  2  0  0  0  0
 30 31  1  0  0  0  0
 30 34  1  0  0  0  0
 31 32  1  0  0  0  0
 31 33  1  0  0  0  0
 34 35  1  0  0  0  0
 34 53  1  0  0  0  0
 35 36  1  0  0  0  0
 35 52  2  0  0  0  0
 36 37  1  0  0  0  0
 36 51  1  0  0  0  0
 36 73  1  0  0  0  0
 37 38  1  0  0  0  0
 38 39  1  0  0  0  0
 39 40  1  0  0  0  0
 39 50  1  0  0  0  0
 40 41  1  0  0  0  0
 40 49  2  0  0  0  0
 41 42  1  0  0  0  0
 42 43  1  0  0  0  0
 43 44  1  0  0  0  0
 43 47  1  0  0  0  0
 43 48  1  0  0  0  0
 44 45  1  0  0  0  0
 44 46  1  0  0  0  0
 50 51  1  0  0  0  0
 55 56  1  0  0  0  0
 56 57  1  0  0  0  0
 56 61  1  0  0  0  0
 57 58  1  0  0  0  0
 58 59  1  0  0  0  0
 58 71  1  0  0  0  0
 59 60  1  0  0  0  0
 60 61  1  0  0  0  0
 63 64  1  0  0  0  0
 64 65  1  0  0  0  0
 67 68  4  0  0  0  0
 67 72  4  0  0  0  0
 68 69  4  0  0  0  0
 69 70  4  0  0  0  0
 70 71  4  0  0  0  0
 71 72  4  0  0  0  0
M  END
$$$$
