mol_ETKDG1_42
  PyMOL3.1          3D                             0

 73 79  0  0  0  0  0  0  0  0999 V2000
   -0.8095   16.9731  -11.1327 C   0  0  0  0  0  0  0  0  0  0  0  0
   -0.8093   15.5205  -11.5578 C   0  0  0  0  0  0  0  0  0  0  0  0
   -1.1902   15.2896  -12.8856 O   0  0  0  0  0  0  0  0  0  0  0  0
   -2.5837   15.1844  -13.1642 C   0  0  0  0  0  0  0  0  0  0  0  0
    0.5139   14.8847  -11.3598 C   0  0  0  0  0  0  0  0  0  0  0  0
    1.6007   15.5205  -11.7838 N   0  0  0  0  0  0  0  0  0  0  0  0
    2.8124   14.9583  -11.6695 C   0  0  0  0  0  0  0  0  0  0  0  0
    2.9645   13.6983  -11.0839 C   0  0  0  0  0  0  0  0  0  0  0  0
    1.8500   13.0472  -10.6401 C   0  0  0  0  0  0  0  0  0  0  0  0
    0.6185   13.6389  -10.7797 C   0  0  0  0  0  0  0  0  0  0  0  0
   -0.5606   12.9664  -10.3048 C   0  0  0  0  0  0  0  0  0  0  0  0
   -1.2808   12.0832  -11.0541 N   0  0  0  0  0  0  0  0  0  0  0  0
   -0.9894   11.6249  -12.4236 C   0  0  0  0  0  0  0  0  0  0  0  0
   -0.3068   10.2511  -12.3967 C   0  0  0  0  0  0  0  0  0  0  0  0
   -1.2008   13.1639   -9.0732 C   0  0  0  0  0  0  0  0  0  0  0  0
   -0.8419   14.0334   -7.9021 C   0  0  0  0  0  0  0  0  0  0  0  0
    0.0309   13.3567   -6.7960 C   0  0  0  0  0  0  0  0  0  0  0  0
   -0.2315   14.0603   -5.4551 C   0  0  0  0  0  0  0  0  0  0  0  0
    1.5431   13.4746   -7.1071 C   0  0  0  0  0  0  0  0  0  0  0  0
   -0.2125   11.9270   -6.6468 C   0  0  0  0  0  0  0  0  0  0  0  0
   -0.7898   11.4195   -5.4026 O   0  0  0  0  0  0  0  0  0  0  0  0
   -0.9839   10.0339   -5.1629 C   0  0  0  0  0  0  0  0  0  0  0  0
   -1.6815    9.7274   -3.8631 C   0  0  0  0  0  0  0  0  0  0  0  0
   -2.3693    8.4508   -4.0072 N   0  0  0  0  0  0  0  0  0  0  0  0
   -3.0387    8.0406   -2.8738 N   0  0  0  0  0  0  0  0  0  0  0  0
   -4.4060    7.9391   -2.8556 C   0  0  0  0  0  0  0  0  0  0  0  0
   -5.1237    8.2448   -4.1429 C   0  0  0  0  0  0  0  0  0  0  0  0
   -6.3210    7.4461   -4.3419 N   0  0  0  0  0  0  0  0  0  0  0  0
   -6.4333    6.4896   -5.2657 C   0  0  0  0  0  0  0  0  0  0  0  0
   -7.8336    5.9710   -5.4721 C   0  0  0  0  0  0  0  0  0  0  0  0
   -7.9776    4.4649   -5.1510 C   0  0  0  0  0  0  0  0  0  0  0  0
   -9.4140    4.0049   -5.3955 C   0  0  0  0  0  0  0  0  0  0  0  0
   -7.5869    4.2133   -3.6833 C   0  0  0  0  0  0  0  0  0  0  0  0
   -8.1913    6.3298   -6.8394 N   0  0  0  0  0  0  0  0  0  0  0  0
   -8.8066    7.5431   -7.0434 C   0  0  0  0  0  0  0  0  0  0  0  0
   -9.0838    8.0487   -8.4554 C   0  0  0  0  0  0  0  0  0  0  0  0
   -9.8276    9.3978   -8.4365 C   0  0  0  0  0  0  0  0  0  0  0  0
   -9.9415    9.9643   -9.8115 C   0  0  0  0  0  0  0  0  0  0  0  0
   -8.6217   10.0138  -10.4509 N   0  0  0  0  0  0  0  0  0  0  0  0
   -8.0064   11.1427  -10.9014 C   0  0  0  0  0  0  0  0  0  0  0  0
   -8.5632   12.3811  -10.5761 C   0  0  0  0  0  0  0  0  0  0  0  0
   -8.9735   13.4402  -10.3731 C   0  0  0  0  0  0  0  0  0  0  0  0
   -9.5106   14.6936   -9.9824 C   0  0  0  0  0  0  0  0  0  0  0  0
   -9.8429   14.6568   -8.5571 N   0  0  0  0  0  0  0  0  0  0  0  0
  -10.6148   13.5036   -8.1121 C   0  0  0  0  0  0  0  0  0  0  0  0
  -10.2478   15.8921   -7.9404 C   0  0  0  0  0  0  0  0  0  0  0  0
   -8.4436   15.7752  -10.2199 C   0  0  0  0  0  0  0  0  0  0  0  0
  -10.7814   14.9692  -10.8058 C   0  0  0  0  0  0  0  0  0  0  0  0
   -6.9847   11.0931  -11.5624 O   0  0  0  0  0  0  0  0  0  0  0  0
   -7.8982    8.7716  -10.5289 C   0  0  0  0  0  0  0  0  0  0  0  0
   -7.7221    8.2925   -9.1181 C   0  0  0  0  0  0  0  0  0  0  0  0
   -9.1344    8.2469   -6.0699 O   0  0  0  0  0  0  0  0  0  0  0  0
   -7.7469    5.4174   -7.9232 C   0  0  0  0  0  0  0  0  0  0  0  0
   -5.4784    6.1301   -5.9612 O   0  0  0  0  0  0  0  0  0  0  0  0
   -5.5588    9.7437   -4.0516 C   0  0  0  0  0  0  0  0  0  0  0  0
   -6.0971   10.2490   -5.3812 C   0  0  0  0  0  0  0  0  0  0  0  0
   -4.9235   10.5593   -6.2839 C   0  0  0  0  0  0  0  0  0  0  0  0
   -5.4119   11.1777   -7.5424 N   0  0  0  0  0  0  0  0  0  0  0  0
   -6.2869   12.3889   -7.2351 C   0  0  0  0  0  0  0  0  0  0  0  0
   -7.4448   11.9605   -6.3590 C   0  0  0  0  0  0  0  0  0  0  0  0
   -6.9108   11.3972   -5.1468 O   0  0  0  0  0  0  0  0  0  0  0  0
   -5.0431    7.7018   -1.8575 O   0  0  0  0  0  0  0  0  0  0  0  0
   -2.1979    7.8483   -1.7021 C   0  0  0  0  0  0  0  0  0  0  0  0
   -1.4382    9.1840   -1.4300 C   0  0  0  0  0  0  0  0  0  0  0  0
   -0.7015    9.6400   -2.6861 C   0  0  0  0  0  0  0  0  0  0  0  0
   -0.6703    9.0678   -5.9040 O   0  0  0  0  0  0  0  0  0  0  0  0
   -2.3148   12.3592   -9.1229 C   0  0  0  0  0  0  0  0  0  0  0  0
   -2.3354   11.6885  -10.3452 C   0  0  0  0  0  0  0  0  0  0  0  0
   -3.4031   10.7900  -10.6293 C   0  0  0  0  0  0  0  0  0  0  0  0
   -4.3980   10.6261   -9.6703 C   0  0  0  0  0  0  0  0  0  0  0  0
   -4.3763   11.3485   -8.4604 C   0  0  0  0  0  0  0  0  0  0  0  0
   -3.3066   12.2024   -8.1900 C   0  0  0  0  0  0  0  0  0  0  0  0
   -9.8121    7.1044   -9.1579 F   0  0  0  0  0  0  0  0  0  0  0  0
  1  2  1  0  0  0  0
  2  3  1  0  0  0  0
  2  5  1  0  0  0  0
  3  4  1  0  0  0  0
  5  6  4  0  0  0  0
  5 10  4  0  0  0  0
  6  7  4  0  0  0  0
  7  8  4  0  0  0  0
  8  9  4  0  0  0  0
  9 10  4  0  0  0  0
 10 11  1  0  0  0  0
 11 12  4  0  0  0  0
 11 15  4  0  0  0  0
 12 13  1  0  0  0  0
 12 68  4  0  0  0  0
 13 14  1  0  0  0  0
 15 16  1  0  0  0  0
 15 67  4  0  0  0  0
 16 17  1  0  0  0  0
 17 18  1  0  0  0  0
 17 19  1  0  0  0  0
 17 20  1  0  0  0  0
 20 21  1  0  0  0  0
 21 22  1  0  0  0  0
 22 23  1  0  0  0  0
 22 66  2  0  0  0  0
 23 24  1  0  0  0  0
 23 65  1  0  0  0  0
 24 25  1  0  0  0  0
 25 26  1  0  0  0  0
 25 63  1  0  0  0  0
 26 27  1  0  0  0  0
 26 62  2  0  0  0  0
 27 28  1  0  0  0  0
 27 55  1  0  0  0  0
 28 29  1  0  0  0  0
 29 30  1  0  0  0  0
 29 54  2  0  0  0  0
 30 31  1  0  0  0  0
 30 34  1  0  0  0  0
 31 32  1  0  0  0  0
 31 33  1  0  0  0  0
 34 35  1  0  0  0  0
 34 53  1  0  0  0  0
 35 36  1  0  0  0  0
 35 52  2  0  0  0  0
 36 37  1  0  0  0  0
 36 51  1  0  0  0  0
 36 73  1  0  0  0  0
 37 38  1  0  0  0  0
 38 39  1  0  0  0  0
 39 40  1  0  0  0  0
 39 50  1  0  0  0  0
 40 41  1  0  0  0  0
 40 49  2  0  0  0  0
 41 42  1  0  0  0  0
 42 43  1  0  0  0  0
 43 44  1  0  0  0  0
 43 47  1  0  0  0  0
 43 48  1  0  0  0  0
 44 45  1  0  0  0  0
 44 46  1  0  0  0  0
 50 51  1  0  0  0  0
 55 56  1  0  0  0  0
 56 57  1  0  0  0  0
 56 61  1  0  0  0  0
 57 58  1  0  0  0  0
 58 59  1  0  0  0  0
 58 71  1  0  0  0  0
 59 60  1  0  0  0  0
 60 61  1  0  0  0  0
 63 64  1  0  0  0  0
 64 65  1  0  0  0  0
 67 68  4  0  0  0  0
 67 72  4  0  0  0  0
 68 69  4  0  0  0  0
 69 70  4  0  0  0  0
 70 71  4  0  0  0  0
 71 72  4  0  0  0  0
M  END
$$$$
