mol_ETKDG3_88
  PyMOL3.1          3D                             0

 73 79  0  0  0  0  0  0  0  0999 V2000
    0.2748   16.4701  -11.6839 C   0  0  0  0  0  0  0  0  0  0  0  0
    0.0681   15.0002  -11.3871 C   0  0  0  0  0  0  0  0  0  0  0  0
   -0.4322   14.3098  -12.4858 O   0  0  0  0  0  0  0  0  0  0  0  0
   -1.8424   14.3510  -12.6761 C   0  0  0  0  0  0  0  0  0  0  0  0
    1.3258   14.3285  -10.9741 C   0  0  0  0  0  0  0  0  0  0  0  0
    2.4905   14.8899  -11.2675 N   0  0  0  0  0  0  0  0  0  0  0  0
    3.6514   14.3003  -10.9277 C   0  0  0  0  0  0  0  0  0  0  0  0
    3.6612   13.0898  -10.2351 C   0  0  0  0  0  0  0  0  0  0  0  0
    2.4647   12.5142   -9.9325 C   0  0  0  0  0  0  0  0  0  0  0  0
    1.3052   13.1142  -10.3194 C   0  0  0  0  0  0  0  0  0  0  0  0
    0.0492   12.4938   -9.9919 C   0  0  0  0  0  0  0  0  0  0  0  0
   -0.5347   11.4960  -10.7178 N   0  0  0  0  0  0  0  0  0  0  0  0
   -0.0106   10.8281  -11.9115 C   0  0  0  0  0  0  0  0  0  0  0  0
    0.6017    9.4812  -11.5197 C   0  0  0  0  0  0  0  0  0  0  0  0
   -0.7823   12.8429   -8.9448 C   0  0  0  0  0  0  0  0  0  0  0  0
   -0.6281   13.8869   -7.8843 C   0  0  0  0  0  0  0  0  0  0  0  0
   -0.0163   13.3927   -6.5435 C   0  0  0  0  0  0  0  0  0  0  0  0
   -0.7708   14.0746   -5.3999 C   0  0  0  0  0  0  0  0  0  0  0  0
    1.4720   13.8132   -6.4732 C   0  0  0  0  0  0  0  0  0  0  0  0
   -0.0183   11.9655   -6.3558 C   0  0  0  0  0  0  0  0  0  0  0  0
   -0.6846   11.4105   -5.1955 O   0  0  0  0  0  0  0  0  0  0  0  0
   -0.9544   10.0383   -5.0701 C   0  0  0  0  0  0  0  0  0  0  0  0
   -1.6744    9.7079   -3.8127 C   0  0  0  0  0  0  0  0  0  0  0  0
   -2.3683    8.4425   -4.0047 N   0  0  0  0  0  0  0  0  0  0  0  0
   -3.0577    8.0245   -2.8939 N   0  0  0  0  0  0  0  0  0  0  0  0
   -4.4149    7.9388   -2.9096 C   0  0  0  0  0  0  0  0  0  0  0  0
   -5.1123    8.2378   -4.2155 C   0  0  0  0  0  0  0  0  0  0  0  0
   -6.3018    7.4324   -4.4062 N   0  0  0  0  0  0  0  0  0  0  0  0
   -6.4187    6.4799   -5.3444 C   0  0  0  0  0  0  0  0  0  0  0  0
   -7.7941    5.9124   -5.4610 C   0  0  0  0  0  0  0  0  0  0  0  0
   -7.8816    4.4038   -5.1025 C   0  0  0  0  0  0  0  0  0  0  0  0
   -9.3069    3.9036   -5.3106 C   0  0  0  0  0  0  0  0  0  0  0  0
   -7.4745    4.1976   -3.6380 C   0  0  0  0  0  0  0  0  0  0  0  0
   -8.3003    6.1770   -6.7909 N   0  0  0  0  0  0  0  0  0  0  0  0
   -9.1424    7.2365   -6.9402 C   0  0  0  0  0  0  0  0  0  0  0  0
   -9.8972    7.4165   -8.2333 C   0  0  0  0  0  0  0  0  0  0  0  0
  -10.6109    8.7626   -8.2929 C   0  0  0  0  0  0  0  0  0  0  0  0
  -11.4356    8.8221   -9.5206 C   0  0  0  0  0  0  0  0  0  0  0  0
  -12.3409    7.6602   -9.5504 N   0  0  0  0  0  0  0  0  0  0  0  0
  -13.6970    7.7621   -9.5226 C   0  0  0  0  0  0  0  0  0  0  0  0
  -14.2997    9.0142   -9.3966 C   0  0  0  0  0  0  0  0  0  0  0  0
  -14.9395    9.9548   -9.3210 C   0  0  0  0  0  0  0  0  0  0  0  0
  -15.6138   11.2220   -9.1499 C   0  0  0  0  0  0  0  0  0  0  0  0
  -16.6582   11.0619   -8.1071 N   0  0  0  0  0  0  0  0  0  0  0  0
  -16.0989   10.7470   -6.7713 C   0  0  0  0  0  0  0  0  0  0  0  0
  -17.7259   10.0989   -8.4963 C   0  0  0  0  0  0  0  0  0  0  0  0
  -14.5951   12.3080   -8.7346 C   0  0  0  0  0  0  0  0  0  0  0  0
  -16.2330   11.5996  -10.4978 C   0  0  0  0  0  0  0  0  0  0  0  0
  -14.3957    6.7627   -9.5826 O   0  0  0  0  0  0  0  0  0  0  0  0
  -11.7339    6.3606   -9.5253 C   0  0  0  0  0  0  0  0  0  0  0  0
  -10.9289    6.2881   -8.2641 C   0  0  0  0  0  0  0  0  0  0  0  0
   -9.3401    8.0211   -6.0005 O   0  0  0  0  0  0  0  0  0  0  0  0
   -7.8473    5.2765   -7.8895 C   0  0  0  0  0  0  0  0  0  0  0  0
   -5.4846    6.1390   -6.0583 O   0  0  0  0  0  0  0  0  0  0  0  0
   -5.5476    9.7267   -4.1942 C   0  0  0  0  0  0  0  0  0  0  0  0
   -5.9860   10.1701   -5.5774 C   0  0  0  0  0  0  0  0  0  0  0  0
   -4.7519   10.4294   -6.3996 C   0  0  0  0  0  0  0  0  0  0  0  0
   -5.1294   10.9616   -7.7261 N   0  0  0  0  0  0  0  0  0  0  0  0
   -6.0120   12.2019   -7.5567 C   0  0  0  0  0  0  0  0  0  0  0  0
   -7.2212   11.8507   -6.7563 C   0  0  0  0  0  0  0  0  0  0  0  0
   -6.7923   11.3390   -5.4644 O   0  0  0  0  0  0  0  0  0  0  0  0
   -5.0659    7.7058   -1.9123 O   0  0  0  0  0  0  0  0  0  0  0  0
   -2.2345    7.8028   -1.7085 C   0  0  0  0  0  0  0  0  0  0  0  0
   -1.4640    9.1196   -1.3989 C   0  0  0  0  0  0  0  0  0  0  0  0
   -0.7144    9.5847   -2.6323 C   0  0  0  0  0  0  0  0  0  0  0  0
   -0.6887    9.0988   -5.8663 O   0  0  0  0  0  0  0  0  0  0  0  0
   -1.8721   12.0076   -9.0494 C   0  0  0  0  0  0  0  0  0  0  0  0
   -1.6957   11.1735  -10.1428 C   0  0  0  0  0  0  0  0  0  0  0  0
   -2.7065   10.2154  -10.4467 C   0  0  0  0  0  0  0  0  0  0  0  0
   -3.8234   10.1538   -9.6271 C   0  0  0  0  0  0  0  0  0  0  0  0
   -3.9814   11.0415   -8.5339 C   0  0  0  0  0  0  0  0  0  0  0  0
   -2.9660   11.9513   -8.2595 C   0  0  0  0  0  0  0  0  0  0  0  0
   -9.0303    7.3416   -9.3192 F   0  0  0  0  0  0  0  0  0  0  0  0
  1  2  1  0  0  0  0
  2  3  1  0  0  0  0
  2  5  1  0  0  0  0
  3  4  1  0  0  0  0
  5  6  4  0  0  0  0
  5 10  4  0  0  0  0
  6  7  4  0  0  0  0
  7  8  4  0  0  0  0
  8  9  4  0  0  0  0
  9 10  4  0  0  0  0
 10 11  1  0  0  0  0
 11 12  4  0  0  0  0
 11 15  4  0  0  0  0
 12 13  1  0  0  0  0
 12 68  4  0  0  0  0
 13 14  1  0  0  0  0
 15 16  1  0  0  0  0
 15 67  4  0  0  0  0
 16 17  1  0  0  0  0
 17 18  1  0  0  0  0
 17 19  1  0  0  0  0
 17 20  1  0  0  0  0
 20 21  1  0  0  0  0
 21 22  1  0  0  0  0
 22 23  1  0  0  0  0
 22 66  2  0  0  0  0
 23 24  1  0  0  0  0
 23 65  1  0  0  0  0
 24 25  1  0  0  0  0
 25 26  1  0  0  0  0
 25 63  1  0  0  0  0
 26 27  1  0  0  0  0
 26 62  2  0  0  0  0
 27 28  1  0  0  0  0
 27 55  1  0  0  0  0
 28 29  1  0  0  0  0
 29 30  1  0  0  0  0
 29 54  2  0  0  0  0
 30 31  1  0  0  0  0
 30 34  1  0  0  0  0
 31 32  1  0  0  0  0
 31 33  1  0  0  0  0
 34 35  1  0  0  0  0
 34 53  1  0  0  0  0
 35 36  1  0  0  0  0
 35 52  2  0  0  0  0
 36 37  1  0  0  0  0
 36 51  1  0  0  0  0
 36 73  1  0  0  0  0
 37 38  1  0  0  0  0
 38 39  1  0  0  0  0
 39 40  1  0  0  0  0
 39 50  1  0  0  0  0
 40 41  1  0  0  0  0
 40 49  2  0  0  0  0
 41 42  1  0  0  0  0
 42 43  1  0  0  0  0
 43 44  1  0  0  0  0
 43 47  1  0  0  0  0
 43 48  1  0  0  0  0
 44 45  1  0  0  0  0
 44 46  1  0  0  0  0
 50 51  1  0  0  0  0
 55 56  1  0  0  0  0
 56 57  1  0  0  0  0
 56 61  1  0  0  0  0
 57 58  1  0  0  0  0
 58 59  1  0  0  0  0
 58 71  1  0  0  0  0
 59 60  1  0  0  0  0
 60 61  1  0  0  0  0
 63 64  1  0  0  0  0
 64 65  1  0  0  0  0
 67 68  4  0  0  0  0
 67 72  4  0  0  0  0
 68 69  4  0  0  0  0
 69 70  4  0  0  0  0
 70 71  4  0  0  0  0
 71 72  4  0  0  0  0
M  END
$$$$
