mol_ETKDG1_39
  PyMOL3.1          3D                             0

 73 79  0  0  0  0  0  0  0  0999 V2000
   -0.0189   15.0763  -13.0478 C   0  0  0  0  0  0  0  0  0  0  0  0
    0.0308   14.9549  -11.5370 C   0  0  0  0  0  0  0  0  0  0  0  0
   -0.0670   16.1671  -10.8533 O   0  0  0  0  0  0  0  0  0  0  0  0
   -1.3628   16.6446  -10.5133 C   0  0  0  0  0  0  0  0  0  0  0  0
    1.2788   14.3067  -11.0955 C   0  0  0  0  0  0  0  0  0  0  0  0
    2.4255   14.8546  -11.4537 N   0  0  0  0  0  0  0  0  0  0  0  0
    3.5847   14.2981  -11.0925 C   0  0  0  0  0  0  0  0  0  0  0  0
    3.6126   13.1158  -10.3473 C   0  0  0  0  0  0  0  0  0  0  0  0
    2.4340   12.5493   -9.9902 C   0  0  0  0  0  0  0  0  0  0  0  0
    1.2623   13.1458  -10.3612 C   0  0  0  0  0  0  0  0  0  0  0  0
    0.0132   12.5654   -9.9549 C   0  0  0  0  0  0  0  0  0  0  0  0
   -0.6383   11.5942  -10.6457 N   0  0  0  0  0  0  0  0  0  0  0  0
   -0.2001   10.9383  -11.8816 C   0  0  0  0  0  0  0  0  0  0  0  0
    0.3874    9.5593  -11.5696 C   0  0  0  0  0  0  0  0  0  0  0  0
   -0.7536   12.9408   -8.8543 C   0  0  0  0  0  0  0  0  0  0  0  0
   -0.5135   13.9588   -7.7985 C   0  0  0  0  0  0  0  0  0  0  0  0
    0.1981   13.4326   -6.5267 C   0  0  0  0  0  0  0  0  0  0  0  0
   -0.3736   14.1546   -5.3036 C   0  0  0  0  0  0  0  0  0  0  0  0
    1.7123   13.7175   -6.5935 C   0  0  0  0  0  0  0  0  0  0  0  0
    0.1061   12.0065   -6.3244 C   0  0  0  0  0  0  0  0  0  0  0  0
   -0.6052   11.4665   -5.1596 O   0  0  0  0  0  0  0  0  0  0  0  0
   -0.8817   10.0918   -5.0208 C   0  0  0  0  0  0  0  0  0  0  0  0
   -1.6135    9.7474   -3.7639 C   0  0  0  0  0  0  0  0  0  0  0  0
   -2.3292    8.5000   -3.9807 N   0  0  0  0  0  0  0  0  0  0  0  0
   -3.0089    8.0495   -2.8750 N   0  0  0  0  0  0  0  0  0  0  0  0
   -4.3677    7.9655   -2.8665 C   0  0  0  0  0  0  0  0  0  0  0  0
   -5.0806    8.3235   -4.1399 C   0  0  0  0  0  0  0  0  0  0  0  0
   -6.2734    7.5395   -4.3535 N   0  0  0  0  0  0  0  0  0  0  0  0
   -6.3713    6.5963   -5.2800 C   0  0  0  0  0  0  0  0  0  0  0  0
   -7.7560    6.0555   -5.4619 C   0  0  0  0  0  0  0  0  0  0  0  0
   -7.8823    4.5374   -5.1691 C   0  0  0  0  0  0  0  0  0  0  0  0
   -9.3011    4.0713   -5.4368 C   0  0  0  0  0  0  0  0  0  0  0  0
   -7.5048    4.2641   -3.7047 C   0  0  0  0  0  0  0  0  0  0  0  0
   -8.1791    6.4092   -6.7975 N   0  0  0  0  0  0  0  0  0  0  0  0
   -8.9832    7.4998   -6.9301 C   0  0  0  0  0  0  0  0  0  0  0  0
   -9.5640    7.8599   -8.2761 C   0  0  0  0  0  0  0  0  0  0  0  0
  -10.4677    9.0897   -8.1990 C   0  0  0  0  0  0  0  0  0  0  0  0
  -11.0390    9.3716   -9.5205 C   0  0  0  0  0  0  0  0  0  0  0  0
  -11.6698    8.1658  -10.0672 N   0  0  0  0  0  0  0  0  0  0  0  0
  -12.9232    8.1063  -10.4988 C   0  0  0  0  0  0  0  0  0  0  0  0
  -13.8374    9.1077  -10.1499 C   0  0  0  0  0  0  0  0  0  0  0  0
  -14.6923    9.8506   -9.9456 C   0  0  0  0  0  0  0  0  0  0  0  0
  -15.7205   10.7700   -9.5646 C   0  0  0  0  0  0  0  0  0  0  0  0
  -15.1977   11.7842   -8.6483 N   0  0  0  0  0  0  0  0  0  0  0  0
  -14.6544   11.2323   -7.4004 C   0  0  0  0  0  0  0  0  0  0  0  0
  -14.2794   12.7468   -9.2574 C   0  0  0  0  0  0  0  0  0  0  0  0
  -16.8430   10.0011   -8.8428 C   0  0  0  0  0  0  0  0  0  0  0  0
  -16.2574   11.4406  -10.8246 C   0  0  0  0  0  0  0  0  0  0  0  0
  -13.2925    7.1494  -11.1566 O   0  0  0  0  0  0  0  0  0  0  0  0
  -10.8927    6.9498  -10.1050 C   0  0  0  0  0  0  0  0  0  0  0  0
  -10.4149    6.6983   -8.7327 C   0  0  0  0  0  0  0  0  0  0  0  0
   -9.2502    8.2082   -5.9481 O   0  0  0  0  0  0  0  0  0  0  0  0
   -7.6598    5.5871   -7.9189 C   0  0  0  0  0  0  0  0  0  0  0  0
   -5.4185    6.2406   -5.9671 O   0  0  0  0  0  0  0  0  0  0  0  0
   -5.4999    9.8217   -4.0246 C   0  0  0  0  0  0  0  0  0  0  0  0
   -5.9517   10.3634   -5.3688 C   0  0  0  0  0  0  0  0  0  0  0  0
   -4.7222   10.5827   -6.2112 C   0  0  0  0  0  0  0  0  0  0  0  0
   -5.0958   11.2122   -7.4818 N   0  0  0  0  0  0  0  0  0  0  0  0
   -5.9024   12.4903   -7.2230 C   0  0  0  0  0  0  0  0  0  0  0  0
   -7.1057   12.1730   -6.3959 C   0  0  0  0  0  0  0  0  0  0  0  0
   -6.6727   11.5698   -5.1619 O   0  0  0  0  0  0  0  0  0  0  0  0
   -5.0087    7.6939   -1.8827 O   0  0  0  0  0  0  0  0  0  0  0  0
   -2.1833    7.7865   -1.7115 C   0  0  0  0  0  0  0  0  0  0  0  0
   -1.4020    9.0843   -1.3720 C   0  0  0  0  0  0  0  0  0  0  0  0
   -0.6490    9.5814   -2.5903 C   0  0  0  0  0  0  0  0  0  0  0  0
   -0.6028    9.1504   -5.8104 O   0  0  0  0  0  0  0  0  0  0  0  0
   -1.8637   12.1451   -8.9118 C   0  0  0  0  0  0  0  0  0  0  0  0
   -1.7644   11.3106  -10.0138 C   0  0  0  0  0  0  0  0  0  0  0  0
   -2.8074   10.3889  -10.2723 C   0  0  0  0  0  0  0  0  0  0  0  0
   -3.8883   10.3567   -9.4067 C   0  0  0  0  0  0  0  0  0  0  0  0
   -3.9754   11.2492   -8.3165 C   0  0  0  0  0  0  0  0  0  0  0  0
   -2.9113   12.1202   -8.0810 C   0  0  0  0  0  0  0  0  0  0  0  0
   -8.5253    8.1009   -9.1600 F   0  0  0  0  0  0  0  0  0  0  0  0
  1  2  1  0  0  0  0
  2  3  1  0  0  0  0
  2  5  1  0  0  0  0
  3  4  1  0  0  0  0
  5  6  4  0  0  0  0
  5 10  4  0  0  0  0
  6  7  4  0  0  0  0
  7  8  4  0  0  0  0
  8  9  4  0  0  0  0
  9 10  4  0  0  0  0
 10 11  1  0  0  0  0
 11 12  4  0  0  0  0
 11 15  4  0  0  0  0
 12 13  1  0  0  0  0
 12 68  4  0  0  0  0
 13 14  1  0  0  0  0
 15 16  1  0  0  0  0
 15 67  4  0  0  0  0
 16 17  1  0  0  0  0
 17 18  1  0  0  0  0
 17 19  1  0  0  0  0
 17 20  1  0  0  0  0
 20 21  1  0  0  0  0
 21 22  1  0  0  0  0
 22 23  1  0  0  0  0
 22 66  2  0  0  0  0
 23 24  1  0  0  0  0
 23 65  1  0  0  0  0
 24 25  1  0  0  0  0
 25 26  1  0  0  0  0
 25 63  1  0  0  0  0
 26 27  1  0  0  0  0
 26 62  2  0  0  0  0
 27 28  1  0  0  0  0
 27 55  1  0  0  0  0
 28 29  1  0  0  0  0
 29 30  1  0  0  0  0
 29 54  2  0  0  0  0
 30 31  1  0  0  0  0
 30 34  1  0  0  0  0
 31 32  1  0  0  0  0
 31 33  1  0  0  0  0
 34 35  1  0  0  0  0
 34 53  1  0  0  0  0
 35 36  1  0  0  0  0
 35 52  2  0  0  0  0
 36 37  1  0  0  0  0
 36 51  1  0  0  0  0
 36 73  1  0  0  0  0
 37 38  1  0  0  0  0
 38 39  1  0  0  0  0
 39 40  1  0  0  0  0
 39 50  1  0  0  0  0
 40 41  1  0  0  0  0
 40 49  2  0  0  0  0
 41 42  1  0  0  0  0
 42 43  1  0  0  0  0
 43 44  1  0  0  0  0
 43 47  1  0  0  0  0
 43 48  1  0  0  0  0
 44 45  1  0  0  0  0
 44 46  1  0  0  0  0
 50 51  1  0  0  0  0
 55 56  1  0  0  0  0
 56 57  1  0  0  0  0
 56 61  1  0  0  0  0
 57 58  1  0  0  0  0
 58 59  1  0  0  0  0
 58 71  1  0  0  0  0
 59 60  1  0  0  0  0
 60 61  1  0  0  0  0
 63 64  1  0  0  0  0
 64 65  1  0  0  0  0
 67 68  4  0  0  0  0
 67 72  4  0  0  0  0
 68 69  4  0  0  0  0
 69 70  4  0  0  0  0
 70 71  4  0  0  0  0
 71 72  4  0  0  0  0
M  END
$$$$
