mol_ETKDG4_112
  PyMOL3.1          3D                             0

 73 79  0  0  0  0  0  0  0  0999 V2000
   -0.6449   16.5865  -11.3064 C   0  0  0  0  0  0  0  0  0  0  0  0
   -0.6625   15.1397  -11.7629 C   0  0  0  0  0  0  0  0  0  0  0  0
   -1.0246   14.9764  -13.1181 O   0  0  0  0  0  0  0  0  0  0  0  0
   -2.3583   14.5936  -13.3860 C   0  0  0  0  0  0  0  0  0  0  0  0
    0.6465   14.4798  -11.5740 C   0  0  0  0  0  0  0  0  0  0  0  0
    1.7256   15.0858  -12.0416 N   0  0  0  0  0  0  0  0  0  0  0  0
    2.9364   14.4980  -11.9128 C   0  0  0  0  0  0  0  0  0  0  0  0
    3.0740   13.2733  -11.2759 C   0  0  0  0  0  0  0  0  0  0  0  0
    1.9560   12.6548  -10.7920 C   0  0  0  0  0  0  0  0  0  0  0  0
    0.7421   13.2541  -10.9481 C   0  0  0  0  0  0  0  0  0  0  0  0
   -0.4378   12.6105  -10.4385 C   0  0  0  0  0  0  0  0  0  0  0  0
   -1.1653   11.6977  -11.1373 N   0  0  0  0  0  0  0  0  0  0  0  0
   -0.8787   11.1528  -12.4748 C   0  0  0  0  0  0  0  0  0  0  0  0
   -0.3170    9.7295  -12.3641 C   0  0  0  0  0  0  0  0  0  0  0  0
   -1.0694   12.8813   -9.2220 C   0  0  0  0  0  0  0  0  0  0  0  0
   -0.7118   13.8152   -8.1002 C   0  0  0  0  0  0  0  0  0  0  0  0
    0.1347   13.2027   -6.9422 C   0  0  0  0  0  0  0  0  0  0  0  0
   -0.1698   13.9722   -5.6556 C   0  0  0  0  0  0  0  0  0  0  0  0
    1.6368   13.3475   -7.2492 C   0  0  0  0  0  0  0  0  0  0  0  0
   -0.0860   11.7922   -6.7280 C   0  0  0  0  0  0  0  0  0  0  0  0
   -0.6935   11.3424   -5.4643 O   0  0  0  0  0  0  0  0  0  0  0  0
   -0.9584    9.9794   -5.1942 C   0  0  0  0  0  0  0  0  0  0  0  0
   -1.6567    9.7262   -3.8914 C   0  0  0  0  0  0  0  0  0  0  0  0
   -2.3572    8.4570   -4.0148 N   0  0  0  0  0  0  0  0  0  0  0  0
   -3.0303    8.0653   -2.8765 N   0  0  0  0  0  0  0  0  0  0  0  0
   -4.3892    7.9701   -2.8678 C   0  0  0  0  0  0  0  0  0  0  0  0
   -5.0990    8.2607   -4.1501 C   0  0  0  0  0  0  0  0  0  0  0  0
   -6.2873    7.4629   -4.3361 N   0  0  0  0  0  0  0  0  0  0  0  0
   -6.3771    6.4807   -5.2403 C   0  0  0  0  0  0  0  0  0  0  0  0
   -7.7469    5.9215   -5.3846 C   0  0  0  0  0  0  0  0  0  0  0  0
   -7.8475    4.4104   -5.0100 C   0  0  0  0  0  0  0  0  0  0  0  0
   -9.2518    3.8912   -5.2827 C   0  0  0  0  0  0  0  0  0  0  0  0
   -7.5179    4.2219   -3.5206 C   0  0  0  0  0  0  0  0  0  0  0  0
   -8.1904    6.1665   -6.7326 N   0  0  0  0  0  0  0  0  0  0  0  0
   -9.1125    7.1427   -6.9227 C   0  0  0  0  0  0  0  0  0  0  0  0
   -9.7873    7.2628   -8.2613 C   0  0  0  0  0  0  0  0  0  0  0  0
  -10.8465    8.3603   -8.2786 C   0  0  0  0  0  0  0  0  0  0  0  0
  -11.5624    8.3213   -9.5797 C   0  0  0  0  0  0  0  0  0  0  0  0
  -12.0891    6.9657   -9.7728 N   0  0  0  0  0  0  0  0  0  0  0  0
  -13.3890    6.6655   -9.8038 C   0  0  0  0  0  0  0  0  0  0  0  0
  -14.2731    7.6915   -9.5148 C   0  0  0  0  0  0  0  0  0  0  0  0
  -15.0448    8.4816   -9.2780 C   0  0  0  0  0  0  0  0  0  0  0  0
  -15.9167    9.5580   -8.8977 C   0  0  0  0  0  0  0  0  0  0  0  0
  -15.4641   10.1344   -7.6122 N   0  0  0  0  0  0  0  0  0  0  0  0
  -15.1878    9.1177   -6.5757 C   0  0  0  0  0  0  0  0  0  0  0  0
  -14.3580   11.0959   -7.7169 C   0  0  0  0  0  0  0  0  0  0  0  0
  -17.3302    9.0186   -8.7347 C   0  0  0  0  0  0  0  0  0  0  0  0
  -15.8633   10.6228  -10.0052 C   0  0  0  0  0  0  0  0  0  0  0  0
  -13.7809    5.5336  -10.0372 O   0  0  0  0  0  0  0  0  0  0  0  0
  -11.1395    5.8916   -9.8076 C   0  0  0  0  0  0  0  0  0  0  0  0
  -10.4813    5.9268   -8.4771 C   0  0  0  0  0  0  0  0  0  0  0  0
   -9.4364    7.8994   -5.9978 O   0  0  0  0  0  0  0  0  0  0  0  0
   -7.5747    5.3442   -7.8161 C   0  0  0  0  0  0  0  0  0  0  0  0
   -5.4225    6.1224   -5.9179 O   0  0  0  0  0  0  0  0  0  0  0  0
   -5.5192    9.7556   -4.0956 C   0  0  0  0  0  0  0  0  0  0  0  0
   -6.0217   10.2241   -5.4323 C   0  0  0  0  0  0  0  0  0  0  0  0
   -4.8363   10.4609   -6.3382 C   0  0  0  0  0  0  0  0  0  0  0  0
   -5.2941   11.0663   -7.5977 N   0  0  0  0  0  0  0  0  0  0  0  0
   -6.1235   12.3154   -7.3224 C   0  0  0  0  0  0  0  0  0  0  0  0
   -7.2902   11.9638   -6.4606 C   0  0  0  0  0  0  0  0  0  0  0  0
   -6.7916   11.4052   -5.2283 O   0  0  0  0  0  0  0  0  0  0  0  0
   -5.0243    7.7405   -1.8594 O   0  0  0  0  0  0  0  0  0  0  0  0
   -2.1931    7.8834   -1.6948 C   0  0  0  0  0  0  0  0  0  0  0  0
   -1.4140    9.2090   -1.4506 C   0  0  0  0  0  0  0  0  0  0  0  0
   -0.6791    9.6424   -2.7126 C   0  0  0  0  0  0  0  0  0  0  0  0
   -0.7042    8.9821   -5.9169 O   0  0  0  0  0  0  0  0  0  0  0  0
   -2.1865   12.0940   -9.2291 C   0  0  0  0  0  0  0  0  0  0  0  0
   -2.2206   11.3565  -10.4117 C   0  0  0  0  0  0  0  0  0  0  0  0
   -3.2990   10.4616  -10.6397 C   0  0  0  0  0  0  0  0  0  0  0  0
   -4.2910   10.3633   -9.6793 C   0  0  0  0  0  0  0  0  0  0  0  0
   -4.2501   11.1512   -8.5150 C   0  0  0  0  0  0  0  0  0  0  0  0
   -3.1597   12.0019   -8.2914 C   0  0  0  0  0  0  0  0  0  0  0  0
   -8.8454    7.5348   -9.2460 F   0  0  0  0  0  0  0  0  0  0  0  0
  1  2  1  0  0  0  0
  2  3  1  0  0  0  0
  2  5  1  0  0  0  0
  3  4  1  0  0  0  0
  5  6  4  0  0  0  0
  5 10  4  0  0  0  0
  6  7  4  0  0  0  0
  7  8  4  0  0  0  0
  8  9  4  0  0  0  0
  9 10  4  0  0  0  0
 10 11  1  0  0  0  0
 11 12  4  0  0  0  0
 11 15  4  0  0  0  0
 12 13  1  0  0  0  0
 12 68  4  0  0  0  0
 13 14  1  0  0  0  0
 15 16  1  0  0  0  0
 15 67  4  0  0  0  0
 16 17  1  0  0  0  0
 17 18  1  0  0  0  0
 17 19  1  0  0  0  0
 17 20  1  0  0  0  0
 20 21  1  0  0  0  0
 21 22  1  0  0  0  0
 22 23  1  0  0  0  0
 22 66  2  0  0  0  0
 23 24  1  0  0  0  0
 23 65  1  0  0  0  0
 24 25  1  0  0  0  0
 25 26  1  0  0  0  0
 25 63  1  0  0  0  0
 26 27  1  0  0  0  0
 26 62  2  0  0  0  0
 27 28  1  0  0  0  0
 27 55  1  0  0  0  0
 28 29  1  0  0  0  0
 29 30  1  0  0  0  0
 29 54  2  0  0  0  0
 30 31  1  0  0  0  0
 30 34  1  0  0  0  0
 31 32  1  0  0  0  0
 31 33  1  0  0  0  0
 34 35  1  0  0  0  0
 34 53  1  0  0  0  0
 35 36  1  0  0  0  0
 35 52  2  0  0  0  0
 36 37  1  0  0  0  0
 36 51  1  0  0  0  0
 36 73  1  0  0  0  0
 37 38  1  0  0  0  0
 38 39  1  0  0  0  0
 39 40  1  0  0  0  0
 39 50  1  0  0  0  0
 40 41  1  0  0  0  0
 40 49  2  0  0  0  0
 41 42  1  0  0  0  0
 42 43  1  0  0  0  0
 43 44  1  0  0  0  0
 43 47  1  0  0  0  0
 43 48  1  0  0  0  0
 44 45  1  0  0  0  0
 44 46  1  0  0  0  0
 50 51  1  0  0  0  0
 55 56  1  0  0  0  0
 56 57  1  0  0  0  0
 56 61  1  0  0  0  0
 57 58  1  0  0  0  0
 58 59  1  0  0  0  0
 58 71  1  0  0  0  0
 59 60  1  0  0  0  0
 60 61  1  0  0  0  0
 63 64  1  0  0  0  0
 64 65  1  0  0  0  0
 67 68  4  0  0  0  0
 67 72  4  0  0  0  0
 68 69  4  0  0  0  0
 69 70  4  0  0  0  0
 70 71  4  0  0  0  0
 71 72  4  0  0  0  0
M  END
$$$$
