mol_ETKDG4_103
  PyMOL3.1          3D                             0

 73 79  0  0  0  0  0  0  0  0999 V2000
   -0.4085   16.1508  -11.8970 C   0  0  0  0  0  0  0  0  0  0  0  0
   -0.3632   14.6428  -11.8719 C   0  0  0  0  0  0  0  0  0  0  0  0
   -0.6212   14.0531  -13.1190 O   0  0  0  0  0  0  0  0  0  0  0  0
   -1.9695   13.8419  -13.4857 C   0  0  0  0  0  0  0  0  0  0  0  0
    0.9457   14.1286  -11.4234 C   0  0  0  0  0  0  0  0  0  0  0  0
    2.0423   14.7502  -11.8154 N   0  0  0  0  0  0  0  0  0  0  0  0
    3.2518   14.2815  -11.4444 C   0  0  0  0  0  0  0  0  0  0  0  0
    3.3736   13.1655  -10.6365 C   0  0  0  0  0  0  0  0  0  0  0  0
    2.2384   12.5276  -10.2338 C   0  0  0  0  0  0  0  0  0  0  0  0
    1.0281   12.9987  -10.6405 C   0  0  0  0  0  0  0  0  0  0  0  0
   -0.1733   12.3426  -10.2121 C   0  0  0  0  0  0  0  0  0  0  0  0
   -0.7754   11.3153  -10.8729 N   0  0  0  0  0  0  0  0  0  0  0  0
   -0.2972   10.6174  -12.0723 C   0  0  0  0  0  0  0  0  0  0  0  0
    0.3414    9.2782  -11.6801 C   0  0  0  0  0  0  0  0  0  0  0  0
   -0.9499   12.7083   -9.1182 C   0  0  0  0  0  0  0  0  0  0  0  0
   -0.7387   13.7541   -8.0736 C   0  0  0  0  0  0  0  0  0  0  0  0
   -0.0193   13.2782   -6.7758 C   0  0  0  0  0  0  0  0  0  0  0  0
   -0.6334   14.0051   -5.5842 C   0  0  0  0  0  0  0  0  0  0  0  0
    1.4768   13.6357   -6.8524 C   0  0  0  0  0  0  0  0  0  0  0  0
   -0.0577   11.8477   -6.5444 C   0  0  0  0  0  0  0  0  0  0  0  0
   -0.7059   11.3343   -5.3440 O   0  0  0  0  0  0  0  0  0  0  0  0
   -0.9988    9.9704   -5.1677 C   0  0  0  0  0  0  0  0  0  0  0  0
   -1.7046    9.6719   -3.8847 C   0  0  0  0  0  0  0  0  0  0  0  0
   -2.4152    8.4194   -4.0521 N   0  0  0  0  0  0  0  0  0  0  0  0
   -3.0900    8.0101   -2.9260 N   0  0  0  0  0  0  0  0  0  0  0  0
   -4.4497    7.9299   -2.9127 C   0  0  0  0  0  0  0  0  0  0  0  0
   -5.1671    8.2121   -4.1962 C   0  0  0  0  0  0  0  0  0  0  0  0
   -6.3576    7.4223   -4.3587 N   0  0  0  0  0  0  0  0  0  0  0  0
   -6.4826    6.4497   -5.2761 C   0  0  0  0  0  0  0  0  0  0  0  0
   -7.8568    5.8935   -5.3717 C   0  0  0  0  0  0  0  0  0  0  0  0
   -7.9445    4.3886   -4.9785 C   0  0  0  0  0  0  0  0  0  0  0  0
   -9.3741    3.8963   -5.1316 C   0  0  0  0  0  0  0  0  0  0  0  0
   -7.5007    4.2022   -3.5209 C   0  0  0  0  0  0  0  0  0  0  0  0
   -8.3691    6.1214   -6.6976 N   0  0  0  0  0  0  0  0  0  0  0  0
   -9.2705    7.1206   -6.8657 C   0  0  0  0  0  0  0  0  0  0  0  0
  -10.0794    7.1736   -8.1301 C   0  0  0  0  0  0  0  0  0  0  0  0
  -11.0488    8.3485   -8.1739 C   0  0  0  0  0  0  0  0  0  0  0  0
  -11.9188    8.2221   -9.3753 C   0  0  0  0  0  0  0  0  0  0  0  0
  -12.5675    6.9032   -9.3535 N   0  0  0  0  0  0  0  0  0  0  0  0
  -13.8882    6.6896   -9.2680 C   0  0  0  0  0  0  0  0  0  0  0  0
  -14.7374    7.7767   -9.3268 C   0  0  0  0  0  0  0  0  0  0  0  0
  -15.5517    8.5646   -9.3882 C   0  0  0  0  0  0  0  0  0  0  0  0
  -16.4999    9.6061   -9.4116 C   0  0  0  0  0  0  0  0  0  0  0  0
  -16.5032   10.3517   -8.1570 N   0  0  0  0  0  0  0  0  0  0  0  0
  -15.9087    9.7099   -7.0007 C   0  0  0  0  0  0  0  0  0  0  0  0
  -16.3194   11.7606   -8.1886 C   0  0  0  0  0  0  0  0  0  0  0  0
  -17.8955    9.0101   -9.5937 C   0  0  0  0  0  0  0  0  0  0  0  0
  -16.1470   10.5087  -10.5991 C   0  0  0  0  0  0  0  0  0  0  0  0
  -14.3441    5.5579   -9.1485 O   0  0  0  0  0  0  0  0  0  0  0  0
  -11.7074    5.7593   -9.3388 C   0  0  0  0  0  0  0  0  0  0  0  0
  -10.8901    5.8842   -8.1186 C   0  0  0  0  0  0  0  0  0  0  0  0
   -9.4892    7.9316   -5.9572 O   0  0  0  0  0  0  0  0  0  0  0  0
   -7.8657    5.2393   -7.7900 C   0  0  0  0  0  0  0  0  0  0  0  0
   -5.5504    6.0924   -5.9871 O   0  0  0  0  0  0  0  0  0  0  0  0
   -5.5843    9.7087   -4.1698 C   0  0  0  0  0  0  0  0  0  0  0  0
   -6.0608   10.1459   -5.5319 C   0  0  0  0  0  0  0  0  0  0  0  0
   -4.8475   10.3348   -6.4046 C   0  0  0  0  0  0  0  0  0  0  0  0
   -5.2402   10.8864   -7.7071 N   0  0  0  0  0  0  0  0  0  0  0  0
   -6.0818   12.1604   -7.5050 C   0  0  0  0  0  0  0  0  0  0  0  0
   -7.2642   11.8617   -6.6674 C   0  0  0  0  0  0  0  0  0  0  0  0
   -6.8206   11.3390   -5.3978 O   0  0  0  0  0  0  0  0  0  0  0  0
   -5.0799    7.7092   -1.9006 O   0  0  0  0  0  0  0  0  0  0  0  0
   -2.2500    7.7892   -1.7517 C   0  0  0  0  0  0  0  0  0  0  0  0
   -1.4615    9.0912   -1.4688 C   0  0  0  0  0  0  0  0  0  0  0  0
   -0.7256    9.5439   -2.7153 C   0  0  0  0  0  0  0  0  0  0  0  0
   -0.7608    9.0097   -5.9433 O   0  0  0  0  0  0  0  0  0  0  0  0
   -2.0253   11.8671   -9.1571 C   0  0  0  0  0  0  0  0  0  0  0  0
   -1.8948   11.0012  -10.2373 C   0  0  0  0  0  0  0  0  0  0  0  0
   -2.9024   10.0332  -10.4660 C   0  0  0  0  0  0  0  0  0  0  0  0
   -3.9883    9.9913   -9.6007 C   0  0  0  0  0  0  0  0  0  0  0  0
   -4.1113   10.9170   -8.5443 C   0  0  0  0  0  0  0  0  0  0  0  0
   -3.0737   11.8336   -8.3346 C   0  0  0  0  0  0  0  0  0  0  0  0
   -9.2373    7.2629   -9.2344 F   0  0  0  0  0  0  0  0  0  0  0  0
  1  2  1  0  0  0  0
  2  3  1  0  0  0  0
  2  5  1  0  0  0  0
  3  4  1  0  0  0  0
  5  6  4  0  0  0  0
  5 10  4  0  0  0  0
  6  7  4  0  0  0  0
  7  8  4  0  0  0  0
  8  9  4  0  0  0  0
  9 10  4  0  0  0  0
 10 11  1  0  0  0  0
 11 12  4  0  0  0  0
 11 15  4  0  0  0  0
 12 13  1  0  0  0  0
 12 68  4  0  0  0  0
 13 14  1  0  0  0  0
 15 16  1  0  0  0  0
 15 67  4  0  0  0  0
 16 17  1  0  0  0  0
 17 18  1  0  0  0  0
 17 19  1  0  0  0  0
 17 20  1  0  0  0  0
 20 21  1  0  0  0  0
 21 22  1  0  0  0  0
 22 23  1  0  0  0  0
 22 66  2  0  0  0  0
 23 24  1  0  0  0  0
 23 65  1  0  0  0  0
 24 25  1  0  0  0  0
 25 26  1  0  0  0  0
 25 63  1  0  0  0  0
 26 27  1  0  0  0  0
 26 62  2  0  0  0  0
 27 28  1  0  0  0  0
 27 55  1  0  0  0  0
 28 29  1  0  0  0  0
 29 30  1  0  0  0  0
 29 54  2  0  0  0  0
 30 31  1  0  0  0  0
 30 34  1  0  0  0  0
 31 32  1  0  0  0  0
 31 33  1  0  0  0  0
 34 35  1  0  0  0  0
 34 53  1  0  0  0  0
 35 36  1  0  0  0  0
 35 52  2  0  0  0  0
 36 37  1  0  0  0  0
 36 51  1  0  0  0  0
 36 73  1  0  0  0  0
 37 38  1  0  0  0  0
 38 39  1  0  0  0  0
 39 40  1  0  0  0  0
 39 50  1  0  0  0  0
 40 41  1  0  0  0  0
 40 49  2  0  0  0  0
 41 42  1  0  0  0  0
 42 43  1  0  0  0  0
 43 44  1  0  0  0  0
 43 47  1  0  0  0  0
 43 48  1  0  0  0  0
 44 45  1  0  0  0  0
 44 46  1  0  0  0  0
 50 51  1  0  0  0  0
 55 56  1  0  0  0  0
 56 57  1  0  0  0  0
 56 61  1  0  0  0  0
 57 58  1  0  0  0  0
 58 59  1  0  0  0  0
 58 71  1  0  0  0  0
 59 60  1  0  0  0  0
 60 61  1  0  0  0  0
 63 64  1  0  0  0  0
 64 65  1  0  0  0  0
 67 68  4  0  0  0  0
 67 72  4  0  0  0  0
 68 69  4  0  0  0  0
 69 70  4  0  0  0  0
 70 71  4  0  0  0  0
 71 72  4  0  0  0  0
M  END
$$$$
