mol_ETKDG5_128
  PyMOL3.1          3D                             0

 73 79  0  0  0  0  0  0  0  0999 V2000
    0.1696   16.9240  -10.9899 C   0  0  0  0  0  0  0  0  0  0  0  0
   -0.0466   15.4487  -10.7490 C   0  0  0  0  0  0  0  0  0  0  0  0
   -0.7138   14.8430  -11.8177 O   0  0  0  0  0  0  0  0  0  0  0  0
   -2.1302   14.9317  -11.8301 C   0  0  0  0  0  0  0  0  0  0  0  0
    1.2159   14.7040  -10.5290 C   0  0  0  0  0  0  0  0  0  0  0  0
    2.3703   15.3026  -10.7919 N   0  0  0  0  0  0  0  0  0  0  0  0
    3.5325   14.6524  -10.6293 C   0  0  0  0  0  0  0  0  0  0  0  0
    3.5633   13.3468  -10.1550 C   0  0  0  0  0  0  0  0  0  0  0  0
    2.3851   12.7322   -9.8800 C   0  0  0  0  0  0  0  0  0  0  0  0
    1.2100   13.3976  -10.0846 C   0  0  0  0  0  0  0  0  0  0  0  0
   -0.0447   12.7365   -9.7753 C   0  0  0  0  0  0  0  0  0  0  0  0
   -0.6207   11.7617  -10.5326 N   0  0  0  0  0  0  0  0  0  0  0  0
   -0.0947   11.1603  -11.7544 C   0  0  0  0  0  0  0  0  0  0  0  0
    0.4932    9.7822  -11.4333 C   0  0  0  0  0  0  0  0  0  0  0  0
   -0.8794   13.0346   -8.7087 C   0  0  0  0  0  0  0  0  0  0  0  0
   -0.7220   14.0118   -7.6088 C   0  0  0  0  0  0  0  0  0  0  0  0
    0.0348   13.4574   -6.3640 C   0  0  0  0  0  0  0  0  0  0  0  0
   -0.5414   14.1191   -5.1136 C   0  0  0  0  0  0  0  0  0  0  0  0
    1.5356   13.8154   -6.4514 C   0  0  0  0  0  0  0  0  0  0  0  0
   -0.0095   12.0305   -6.2386 C   0  0  0  0  0  0  0  0  0  0  0  0
   -0.7214   11.4479   -5.1215 O   0  0  0  0  0  0  0  0  0  0  0  0
   -1.0112   10.0782   -5.0340 C   0  0  0  0  0  0  0  0  0  0  0  0
   -1.7376    9.7272   -3.7827 C   0  0  0  0  0  0  0  0  0  0  0  0
   -2.4115    8.4606   -3.9854 N   0  0  0  0  0  0  0  0  0  0  0  0
   -3.0869    8.0172   -2.8743 N   0  0  0  0  0  0  0  0  0  0  0  0
   -4.4446    7.9145   -2.8721 C   0  0  0  0  0  0  0  0  0  0  0  0
   -5.1532    8.2193   -4.1645 C   0  0  0  0  0  0  0  0  0  0  0  0
   -6.3418    7.4180   -4.3612 N   0  0  0  0  0  0  0  0  0  0  0  0
   -6.4461    6.4715   -5.2985 C   0  0  0  0  0  0  0  0  0  0  0  0
   -7.8358    5.9252   -5.4398 C   0  0  0  0  0  0  0  0  0  0  0  0
   -7.9497    4.4134   -5.0884 C   0  0  0  0  0  0  0  0  0  0  0  0
   -9.3763    3.9313   -5.3195 C   0  0  0  0  0  0  0  0  0  0  0  0
   -7.5576    4.1930   -3.6189 C   0  0  0  0  0  0  0  0  0  0  0  0
   -8.3115    6.2129   -6.7749 N   0  0  0  0  0  0  0  0  0  0  0  0
   -9.1524    7.2679   -6.9462 C   0  0  0  0  0  0  0  0  0  0  0  0
   -9.8429    7.4716   -8.2716 C   0  0  0  0  0  0  0  0  0  0  0  0
  -10.6295    8.7722   -8.3448 C   0  0  0  0  0  0  0  0  0  0  0  0
  -11.3398    8.8388   -9.6453 C   0  0  0  0  0  0  0  0  0  0  0  0
  -12.1417    7.6175   -9.8441 N   0  0  0  0  0  0  0  0  0  0  0  0
  -13.4690    7.5933  -10.0873 C   0  0  0  0  0  0  0  0  0  0  0  0
  -14.1885    8.7799  -10.0942 C   0  0  0  0  0  0  0  0  0  0  0  0
  -14.9087    9.6516  -10.1579 C   0  0  0  0  0  0  0  0  0  0  0  0
  -15.6958   10.8611  -10.1353 C   0  0  0  0  0  0  0  0  0  0  0  0
  -16.8421   10.6627   -9.2144 N   0  0  0  0  0  0  0  0  0  0  0  0
  -16.4168   10.4384   -7.8106 C   0  0  0  0  0  0  0  0  0  0  0  0
  -17.8029    9.6238   -9.6707 C   0  0  0  0  0  0  0  0  0  0  0  0
  -14.8303   12.0482   -9.6571 C   0  0  0  0  0  0  0  0  0  0  0  0
  -16.1734   11.1313  -11.5595 C   0  0  0  0  0  0  0  0  0  0  0  0
  -14.0501    6.5338  -10.2913 O   0  0  0  0  0  0  0  0  0  0  0  0
  -11.4605    6.3462   -9.7471 C   0  0  0  0  0  0  0  0  0  0  0  0
  -10.8102    6.3029   -8.4206 C   0  0  0  0  0  0  0  0  0  0  0  0
   -9.3961    8.0385   -6.0069 O   0  0  0  0  0  0  0  0  0  0  0  0
   -7.8177    5.3349   -7.8741 C   0  0  0  0  0  0  0  0  0  0  0  0
   -5.5138    6.1207   -6.0118 O   0  0  0  0  0  0  0  0  0  0  0  0
   -5.5989    9.7082   -4.1061 C   0  0  0  0  0  0  0  0  0  0  0  0
   -6.0636   10.1874   -5.4653 C   0  0  0  0  0  0  0  0  0  0  0  0
   -4.8291   10.4758   -6.2791 C   0  0  0  0  0  0  0  0  0  0  0  0
   -5.2038   11.0779   -7.5682 N   0  0  0  0  0  0  0  0  0  0  0  0
   -6.0985   12.2921   -7.3513 C   0  0  0  0  0  0  0  0  0  0  0  0
   -7.3174   11.8891   -6.5575 C   0  0  0  0  0  0  0  0  0  0  0  0
   -6.8812   11.3356   -5.3033 O   0  0  0  0  0  0  0  0  0  0  0  0
   -5.0808    7.6686   -1.8804 O   0  0  0  0  0  0  0  0  0  0  0  0
   -2.2577    7.8023   -1.6945 C   0  0  0  0  0  0  0  0  0  0  0  0
   -1.5120    9.1240   -1.3773 C   0  0  0  0  0  0  0  0  0  0  0  0
   -0.7757    9.6118   -2.5987 C   0  0  0  0  0  0  0  0  0  0  0  0
   -0.7570    9.1652   -5.8541 O   0  0  0  0  0  0  0  0  0  0  0  0
   -1.9587   12.1916   -8.8462 C   0  0  0  0  0  0  0  0  0  0  0  0
   -1.7702   11.4053   -9.9646 C   0  0  0  0  0  0  0  0  0  0  0  0
   -2.7646   10.4436  -10.2950 C   0  0  0  0  0  0  0  0  0  0  0  0
   -3.8773   10.3394   -9.4784 C   0  0  0  0  0  0  0  0  0  0  0  0
   -4.0510   11.1884   -8.3671 C   0  0  0  0  0  0  0  0  0  0  0  0
   -3.0464   12.1016   -8.0622 C   0  0  0  0  0  0  0  0  0  0  0  0
   -8.8981    7.4965   -9.2872 F   0  0  0  0  0  0  0  0  0  0  0  0
  1  2  1  0  0  0  0
  2  3  1  0  0  0  0
  2  5  1  0  0  0  0
  3  4  1  0  0  0  0
  5  6  4  0  0  0  0
  5 10  4  0  0  0  0
  6  7  4  0  0  0  0
  7  8  4  0  0  0  0
  8  9  4  0  0  0  0
  9 10  4  0  0  0  0
 10 11  1  0  0  0  0
 11 12  4  0  0  0  0
 11 15  4  0  0  0  0
 12 13  1  0  0  0  0
 12 68  4  0  0  0  0
 13 14  1  0  0  0  0
 15 16  1  0  0  0  0
 15 67  4  0  0  0  0
 16 17  1  0  0  0  0
 17 18  1  0  0  0  0
 17 19  1  0  0  0  0
 17 20  1  0  0  0  0
 20 21  1  0  0  0  0
 21 22  1  0  0  0  0
 22 23  1  0  0  0  0
 22 66  2  0  0  0  0
 23 24  1  0  0  0  0
 23 65  1  0  0  0  0
 24 25  1  0  0  0  0
 25 26  1  0  0  0  0
 25 63  1  0  0  0  0
 26 27  1  0  0  0  0
 26 62  2  0  0  0  0
 27 28  1  0  0  0  0
 27 55  1  0  0  0  0
 28 29  1  0  0  0  0
 29 30  1  0  0  0  0
 29 54  2  0  0  0  0
 30 31  1  0  0  0  0
 30 34  1  0  0  0  0
 31 32  1  0  0  0  0
 31 33  1  0  0  0  0
 34 35  1  0  0  0  0
 34 53  1  0  0  0  0
 35 36  1  0  0  0  0
 35 52  2  0  0  0  0
 36 37  1  0  0  0  0
 36 51  1  0  0  0  0
 36 73  1  0  0  0  0
 37 38  1  0  0  0  0
 38 39  1  0  0  0  0
 39 40  1  0  0  0  0
 39 50  1  0  0  0  0
 40 41  1  0  0  0  0
 40 49  2  0  0  0  0
 41 42  1  0  0  0  0
 42 43  1  0  0  0  0
 43 44  1  0  0  0  0
 43 47  1  0  0  0  0
 43 48  1  0  0  0  0
 44 45  1  0  0  0  0
 44 46  1  0  0  0  0
 50 51  1  0  0  0  0
 55 56  1  0  0  0  0
 56 57  1  0  0  0  0
 56 61  1  0  0  0  0
 57 58  1  0  0  0  0
 58 59  1  0  0  0  0
 58 71  1  0  0  0  0
 59 60  1  0  0  0  0
 60 61  1  0  0  0  0
 63 64  1  0  0  0  0
 64 65  1  0  0  0  0
 67 68  4  0  0  0  0
 67 72  4  0  0  0  0
 68 69  4  0  0  0  0
 69 70  4  0  0  0  0
 70 71  4  0  0  0  0
 71 72  4  0  0  0  0
M  END
$$$$
