mol_bioactive_17
  PyMOL3.1          3D                             0

 73 79  0  0  0  0  0  0  0  0999 V2000
   -0.0633   16.6592  -10.7828 C   0  0  0  0  0  0  0  0  0  0  0  0
    0.1051   15.3114  -11.4898 C   0  0  0  0  0  0  0  0  0  0  0  0
   -1.0282   14.5697  -11.4467 O   0  0  0  0  0  0  0  0  0  0  0  0
   -2.1807   15.0307  -12.1242 C   0  0  0  0  0  0  0  0  0  0  0  0
    1.2473   14.5594  -10.9123 C   0  0  0  0  0  0  0  0  0  0  0  0
    2.4193   15.1203  -11.1268 N   0  0  0  0  0  0  0  0  0  0  0  0
    3.5419   14.5296  -10.7553 C   0  0  0  0  0  0  0  0  0  0  0  0
    3.5245   13.3051  -10.1209 C   0  0  0  0  0  0  0  0  0  0  0  0
    2.3370   12.7145   -9.8683 C   0  0  0  0  0  0  0  0  0  0  0  0
    1.1854   13.3228  -10.2410 C   0  0  0  0  0  0  0  0  0  0  0  0
   -0.0666   12.6729   -9.9074 C   0  0  0  0  0  0  0  0  0  0  0  0
   -0.6270   11.6657  -10.6409 N   0  0  0  0  0  0  0  0  0  0  0  0
   -0.0949   11.0380  -11.8500 C   0  0  0  0  0  0  0  0  0  0  0  0
    0.5922    9.7147  -11.5033 C   0  0  0  0  0  0  0  0  0  0  0  0
   -0.8998   12.9678   -8.8324 C   0  0  0  0  0  0  0  0  0  0  0  0
   -0.7568   13.9547   -7.7437 C   0  0  0  0  0  0  0  0  0  0  0  0
   -0.0120   13.4344   -6.4831 C   0  0  0  0  0  0  0  0  0  0  0  0
   -0.6126   14.1044   -5.2575 C   0  0  0  0  0  0  0  0  0  0  0  0
    1.4804   13.8117   -6.5567 C   0  0  0  0  0  0  0  0  0  0  0  0
   -0.0343   11.9993   -6.3216 C   0  0  0  0  0  0  0  0  0  0  0  0
   -0.7442   11.4179   -5.1952 O   0  0  0  0  0  0  0  0  0  0  0  0
   -1.0158   10.0390   -5.0870 C   0  0  0  0  0  0  0  0  0  0  0  0
   -1.7360    9.6764   -3.8325 C   0  0  0  0  0  0  0  0  0  0  0  0
   -2.4368    8.4235   -4.0436 N   0  0  0  0  0  0  0  0  0  0  0  0
   -3.1172    7.9797   -2.9324 N   0  0  0  0  0  0  0  0  0  0  0  0
   -4.4772    7.9023   -2.9269 C   0  0  0  0  0  0  0  0  0  0  0  0
   -5.2046    8.2802   -4.1943 C   0  0  0  0  0  0  0  0  0  0  0  0
   -6.3983    7.4661   -4.4122 N   0  0  0  0  0  0  0  0  0  0  0  0
   -6.4837    6.4404   -5.2806 C   0  0  0  0  0  0  0  0  0  0  0  0
   -7.8637    5.8636   -5.4061 C   0  0  0  0  0  0  0  0  0  0  0  0
   -7.9463    4.3558   -5.0964 C   0  0  0  0  0  0  0  0  0  0  0  0
   -9.3588    3.8411   -5.3427 C   0  0  0  0  0  0  0  0  0  0  0  0
   -7.5643    4.1193   -3.6318 C   0  0  0  0  0  0  0  0  0  0  0  0
   -8.3929    6.2444   -6.6952 N   0  0  0  0  0  0  0  0  0  0  0  0
   -9.1448    7.3731   -6.7352 C   0  0  0  0  0  0  0  0  0  0  0  0
   -9.8610    7.8327   -7.9720 C   0  0  0  0  0  0  0  0  0  0  0  0
   -9.1728    9.0681   -8.4737 C   0  0  0  0  0  0  0  0  0  0  0  0
   -9.9893    9.6717   -9.5971 C   0  0  0  0  0  0  0  0  0  0  0  0
  -11.2999    9.9194   -9.0478 N   0  0  0  0  0  0  0  0  0  0  0  0
  -11.7040   11.1956   -8.7979 C   0  0  0  0  0  0  0  0  0  0  0  0
  -12.8102   11.3784   -7.9503 C   0  0  0  0  0  0  0  0  0  0  0  0
  -13.7171   11.6221   -7.2797 C   0  0  0  0  0  0  0  0  0  0  0  0
  -14.8360   11.7837   -6.3910 C   0  0  0  0  0  0  0  0  0  0  0  0
  -14.3862   11.9251   -5.0071 N   0  0  0  0  0  0  0  0  0  0  0  0
  -14.2105   10.7165   -4.4490 C   0  0  0  0  0  0  0  0  0  0  0  0
  -13.3071   12.8630   -4.8023 C   0  0  0  0  0  0  0  0  0  0  0  0
  -15.6325   13.0108   -6.7608 C   0  0  0  0  0  0  0  0  0  0  0  0
  -15.7128   10.5331   -6.5232 C   0  0  0  0  0  0  0  0  0  0  0  0
  -11.1245   12.1437   -9.2725 O   0  0  0  0  0  0  0  0  0  0  0  0
  -12.0557    8.7497   -8.6326 C   0  0  0  0  0  0  0  0  0  0  0  0
  -11.3136    8.0987   -7.5419 C   0  0  0  0  0  0  0  0  0  0  0  0
   -9.2893    8.0537   -5.7017 O   0  0  0  0  0  0  0  0  0  0  0  0
   -8.0143    5.4235   -7.8648 C   0  0  0  0  0  0  0  0  0  0  0  0
   -5.5389    6.0566   -5.9612 O   0  0  0  0  0  0  0  0  0  0  0  0
   -5.6001    9.7761   -4.0354 C   0  0  0  0  0  0  0  0  0  0  0  0
   -5.7192   10.6195   -5.2895 C   0  0  0  0  0  0  0  0  0  0  0  0
   -5.0123   10.0966   -6.5213 C   0  0  0  0  0  0  0  0  0  0  0  0
   -5.2765   10.9297   -7.6946 N   0  0  0  0  0  0  0  0  0  0  0  0
   -6.1224   12.1538   -7.4512 C   0  0  0  0  0  0  0  0  0  0  0  0
   -7.2958   11.8461   -6.6148 C   0  0  0  0  0  0  0  0  0  0  0  0
   -7.0977   10.8458   -5.6031 O   0  0  0  0  0  0  0  0  0  0  0  0
   -5.1076    7.6441   -1.9250 O   0  0  0  0  0  0  0  0  0  0  0  0
   -2.2888    7.7440   -1.7539 C   0  0  0  0  0  0  0  0  0  0  0  0
   -1.5164    9.0488   -1.4361 C   0  0  0  0  0  0  0  0  0  0  0  0
   -0.7762    9.5289   -2.6542 C   0  0  0  0  0  0  0  0  0  0  0  0
   -0.7370    9.1234   -5.9018 O   0  0  0  0  0  0  0  0  0  0  0  0
   -1.9683   12.1082   -8.9492 C   0  0  0  0  0  0  0  0  0  0  0  0
   -1.7719   11.3009  -10.0596 C   0  0  0  0  0  0  0  0  0  0  0  0
   -2.7490   10.3197  -10.3722 C   0  0  0  0  0  0  0  0  0  0  0  0
   -3.8737   10.2035   -9.5464 C   0  0  0  0  0  0  0  0  0  0  0  0
   -4.0721   11.0685   -8.4539 C   0  0  0  0  0  0  0  0  0  0  0  0
   -3.0719   12.0114   -8.1549 C   0  0  0  0  0  0  0  0  0  0  0  0
   -9.9105    6.9078   -8.9745 F   0  0  0  0  0  0  0  0  0  0  0  0
  1  2  1  0  0  0  0
  2  3  1  0  0  0  0
  2  5  1  0  0  0  0
  3  4  1  0  0  0  0
  5  6  4  0  0  0  0
  5 10  4  0  0  0  0
  6  7  4  0  0  0  0
  7  8  4  0  0  0  0
  8  9  4  0  0  0  0
  9 10  4  0  0  0  0
 10 11  1  0  0  0  0
 11 12  4  0  0  0  0
 11 15  4  0  0  0  0
 12 13  1  0  0  0  0
 12 68  4  0  0  0  0
 13 14  1  0  0  0  0
 15 16  1  0  0  0  0
 15 67  4  0  0  0  0
 16 17  1  0  0  0  0
 17 18  1  0  0  0  0
 17 19  1  0  0  0  0
 17 20  1  0  0  0  0
 20 21  1  0  0  0  0
 21 22  1  0  0  0  0
 22 23  1  0  0  0  0
 22 66  2  0  0  0  0
 23 24  1  0  0  0  0
 23 65  1  0  0  0  0
 24 25  1  0  0  0  0
 25 26  1  0  0  0  0
 25 63  1  0  0  0  0
 26 27  1  0  0  0  0
 26 62  2  0  0  0  0
 27 28  1  0  0  0  0
 27 55  1  0  0  0  0
 28 29  1  0  0  0  0
 29 30  1  0  0  0  0
 29 54  2  0  0  0  0
 30 31  1  0  0  0  0
 30 34  1  0  0  0  0
 31 32  1  0  0  0  0
 31 33  1  0  0  0  0
 34 35  1  0  0  0  0
 34 53  1  0  0  0  0
 35 36  1  0  0  0  0
 35 52  2  0  0  0  0
 36 37  1  0  0  0  0
 36 51  1  0  0  0  0
 36 73  1  0  0  0  0
 37 38  1  0  0  0  0
 38 39  1  0  0  0  0
 39 40  1  0  0  0  0
 39 50  1  0  0  0  0
 40 41  1  0  0  0  0
 40 49  2  0  0  0  0
 41 42  1  0  0  0  0
 42 43  1  0  0  0  0
 43 44  1  0  0  0  0
 43 47  1  0  0  0  0
 43 48  1  0  0  0  0
 44 45  1  0  0  0  0
 44 46  1  0  0  0  0
 50 51  1  0  0  0  0
 55 56  1  0  0  0  0
 56 57  1  0  0  0  0
 56 61  1  0  0  0  0
 57 58  1  0  0  0  0
 58 59  1  0  0  0  0
 58 71  1  0  0  0  0
 59 60  1  0  0  0  0
 60 61  1  0  0  0  0
 63 64  1  0  0  0  0
 64 65  1  0  0  0  0
 67 68  4  0  0  0  0
 67 72  4  0  0  0  0
 68 69  4  0  0  0  0
 69 70  4  0  0  0  0
 70 71  4  0  0  0  0
 71 72  4  0  0  0  0
M  END
$$$$
