mol_ETKDG1_50
  PyMOL3.1          3D                             0

 73 79  0  0  0  0  0  0  0  0999 V2000
    0.0604   16.7741  -10.9201 C   0  0  0  0  0  0  0  0  0  0  0  0
    0.1691   15.3292  -11.3866 C   0  0  0  0  0  0  0  0  0  0  0  0
    0.1681   15.1771  -12.7871 O   0  0  0  0  0  0  0  0  0  0  0  0
   -1.0592   14.8195  -13.3955 C   0  0  0  0  0  0  0  0  0  0  0  0
    1.4036   14.6850  -10.8859 C   0  0  0  0  0  0  0  0  0  0  0  0
    2.5605   15.2878  -11.1150 N   0  0  0  0  0  0  0  0  0  0  0  0
    3.7137   14.7233  -10.7319 C   0  0  0  0  0  0  0  0  0  0  0  0
    3.7216   13.4975  -10.0607 C   0  0  0  0  0  0  0  0  0  0  0  0
    2.5346   12.8845   -9.8126 C   0  0  0  0  0  0  0  0  0  0  0  0
    1.3705   13.4722  -10.2318 C   0  0  0  0  0  0  0  0  0  0  0  0
    0.1146   12.8320   -9.9376 C   0  0  0  0  0  0  0  0  0  0  0  0
   -0.4715   11.8701  -10.7098 N   0  0  0  0  0  0  0  0  0  0  0  0
    0.0588   11.2792  -11.9416 C   0  0  0  0  0  0  0  0  0  0  0  0
    0.5970    9.8705  -11.6467 C   0  0  0  0  0  0  0  0  0  0  0  0
   -0.7239   13.1208   -8.8620 C   0  0  0  0  0  0  0  0  0  0  0  0
   -0.5650   14.0958   -7.7486 C   0  0  0  0  0  0  0  0  0  0  0  0
    0.1169   13.5434   -6.4719 C   0  0  0  0  0  0  0  0  0  0  0  0
   -0.5154   14.2171   -5.2415 C   0  0  0  0  0  0  0  0  0  0  0  0
    1.6317   13.8544   -6.4629 C   0  0  0  0  0  0  0  0  0  0  0  0
    0.0372   12.0907   -6.3221 C   0  0  0  0  0  0  0  0  0  0  0  0
   -0.6475   11.5273   -5.1733 O   0  0  0  0  0  0  0  0  0  0  0  0
   -0.9588   10.1627   -5.0661 C   0  0  0  0  0  0  0  0  0  0  0  0
   -1.6928    9.8318   -3.8030 C   0  0  0  0  0  0  0  0  0  0  0  0
   -2.3916    8.5705   -4.0036 N   0  0  0  0  0  0  0  0  0  0  0  0
   -3.0852    8.1358   -2.8995 N   0  0  0  0  0  0  0  0  0  0  0  0
   -4.4441    8.0322   -2.9179 C   0  0  0  0  0  0  0  0  0  0  0  0
   -5.1352    8.3285   -4.2292 C   0  0  0  0  0  0  0  0  0  0  0  0
   -6.3192    7.5219   -4.4239 N   0  0  0  0  0  0  0  0  0  0  0  0
   -6.3819    6.5234   -5.3057 C   0  0  0  0  0  0  0  0  0  0  0  0
   -7.7394    5.9232   -5.4775 C   0  0  0  0  0  0  0  0  0  0  0  0
   -7.8280    4.4140   -5.0775 C   0  0  0  0  0  0  0  0  0  0  0  0
   -9.2148    3.8690   -5.3854 C   0  0  0  0  0  0  0  0  0  0  0  0
   -7.5377    4.2507   -3.5748 C   0  0  0  0  0  0  0  0  0  0  0  0
   -8.1401    6.1123   -6.8478 N   0  0  0  0  0  0  0  0  0  0  0  0
   -9.1445    6.9941   -7.0943 C   0  0  0  0  0  0  0  0  0  0  0  0
   -9.7585    7.0615   -8.4738 C   0  0  0  0  0  0  0  0  0  0  0  0
  -11.0887    7.8235   -8.4413 C   0  0  0  0  0  0  0  0  0  0  0  0
  -11.7923    7.6957   -9.7480 C   0  0  0  0  0  0  0  0  0  0  0  0
  -11.8878    6.2705  -10.1078 N   0  0  0  0  0  0  0  0  0  0  0  0
  -13.0160    5.5282  -10.1917 C   0  0  0  0  0  0  0  0  0  0  0  0
  -14.2303    6.1093   -9.8461 C   0  0  0  0  0  0  0  0  0  0  0  0
  -15.2742    6.5295   -9.6009 C   0  0  0  0  0  0  0  0  0  0  0  0
  -16.5122    7.1209   -9.1842 C   0  0  0  0  0  0  0  0  0  0  0  0
  -16.2706    8.1443   -8.1540 N   0  0  0  0  0  0  0  0  0  0  0  0
  -15.4708    7.6672   -7.0155 C   0  0  0  0  0  0  0  0  0  0  0  0
  -15.7487    9.4197   -8.6691 C   0  0  0  0  0  0  0  0  0  0  0  0
  -17.4183    6.0280   -8.5872 C   0  0  0  0  0  0  0  0  0  0  0  0
  -17.1650    7.7576  -10.4150 C   0  0  0  0  0  0  0  0  0  0  0  0
  -12.9861    4.3455  -10.5438 O   0  0  0  0  0  0  0  0  0  0  0  0
  -10.6597    5.5722  -10.2277 C   0  0  0  0  0  0  0  0  0  0  0  0
  -10.0862    5.6272   -8.8601 C   0  0  0  0  0  0  0  0  0  0  0  0
   -9.5861    7.7246   -6.1928 O   0  0  0  0  0  0  0  0  0  0  0  0
   -7.3948    5.3356   -7.8768 C   0  0  0  0  0  0  0  0  0  0  0  0
   -5.4022    6.1612   -5.9561 O   0  0  0  0  0  0  0  0  0  0  0  0
   -5.5706    9.8278   -4.2259 C   0  0  0  0  0  0  0  0  0  0  0  0
   -5.9874   10.2745   -5.6267 C   0  0  0  0  0  0  0  0  0  0  0  0
   -4.7375   10.5320   -6.4424 C   0  0  0  0  0  0  0  0  0  0  0  0
   -5.0856   11.1319   -7.7563 N   0  0  0  0  0  0  0  0  0  0  0  0
   -5.9778   12.3605   -7.5539 C   0  0  0  0  0  0  0  0  0  0  0  0
   -7.2062   11.9757   -6.7783 C   0  0  0  0  0  0  0  0  0  0  0  0
   -6.8026   11.4317   -5.5072 O   0  0  0  0  0  0  0  0  0  0  0  0
   -5.0956    7.7799   -1.9338 O   0  0  0  0  0  0  0  0  0  0  0  0
   -2.2676    7.9040   -1.7132 C   0  0  0  0  0  0  0  0  0  0  0  0
   -1.5022    9.2187   -1.3881 C   0  0  0  0  0  0  0  0  0  0  0  0
   -0.7400    9.6999   -2.6129 C   0  0  0  0  0  0  0  0  0  0  0  0
   -0.7192    9.2335   -5.8836 O   0  0  0  0  0  0  0  0  0  0  0  0
   -1.8125   12.2866   -9.0119 C   0  0  0  0  0  0  0  0  0  0  0  0
   -1.6295   11.5154  -10.1484 C   0  0  0  0  0  0  0  0  0  0  0  0
   -2.6313   10.5668  -10.5010 C   0  0  0  0  0  0  0  0  0  0  0  0
   -3.7561   10.4468   -9.6846 C   0  0  0  0  0  0  0  0  0  0  0  0
   -3.9295   11.2700   -8.5467 C   0  0  0  0  0  0  0  0  0  0  0  0
   -2.9181   12.1822   -8.2241 C   0  0  0  0  0  0  0  0  0  0  0  0
   -8.8504    7.6401   -9.3511 F   0  0  0  0  0  0  0  0  0  0  0  0
  1  2  1  0  0  0  0
  2  3  1  0  0  0  0
  2  5  1  0  0  0  0
  3  4  1  0  0  0  0
  5  6  4  0  0  0  0
  5 10  4  0  0  0  0
  6  7  4  0  0  0  0
  7  8  4  0  0  0  0
  8  9  4  0  0  0  0
  9 10  4  0  0  0  0
 10 11  1  0  0  0  0
 11 12  4  0  0  0  0
 11 15  4  0  0  0  0
 12 13  1  0  0  0  0
 12 68  4  0  0  0  0
 13 14  1  0  0  0  0
 15 16  1  0  0  0  0
 15 67  4  0  0  0  0
 16 17  1  0  0  0  0
 17 18  1  0  0  0  0
 17 19  1  0  0  0  0
 17 20  1  0  0  0  0
 20 21  1  0  0  0  0
 21 22  1  0  0  0  0
 22 23  1  0  0  0  0
 22 66  2  0  0  0  0
 23 24  1  0  0  0  0
 23 65  1  0  0  0  0
 24 25  1  0  0  0  0
 25 26  1  0  0  0  0
 25 63  1  0  0  0  0
 26 27  1  0  0  0  0
 26 62  2  0  0  0  0
 27 28  1  0  0  0  0
 27 55  1  0  0  0  0
 28 29  1  0  0  0  0
 29 30  1  0  0  0  0
 29 54  2  0  0  0  0
 30 31  1  0  0  0  0
 30 34  1  0  0  0  0
 31 32  1  0  0  0  0
 31 33  1  0  0  0  0
 34 35  1  0  0  0  0
 34 53  1  0  0  0  0
 35 36  1  0  0  0  0
 35 52  2  0  0  0  0
 36 37  1  0  0  0  0
 36 51  1  0  0  0  0
 36 73  1  0  0  0  0
 37 38  1  0  0  0  0
 38 39  1  0  0  0  0
 39 40  1  0  0  0  0
 39 50  1  0  0  0  0
 40 41  1  0  0  0  0
 40 49  2  0  0  0  0
 41 42  1  0  0  0  0
 42 43  1  0  0  0  0
 43 44  1  0  0  0  0
 43 47  1  0  0  0  0
 43 48  1  0  0  0  0
 44 45  1  0  0  0  0
 44 46  1  0  0  0  0
 50 51  1  0  0  0  0
 55 56  1  0  0  0  0
 56 57  1  0  0  0  0
 56 61  1  0  0  0  0
 57 58  1  0  0  0  0
 58 59  1  0  0  0  0
 58 71  1  0  0  0  0
 59 60  1  0  0  0  0
 60 61  1  0  0  0  0
 63 64  1  0  0  0  0
 64 65  1  0  0  0  0
 67 68  4  0  0  0  0
 67 72  4  0  0  0  0
 68 69  4  0  0  0  0
 69 70  4  0  0  0  0
 70 71  4  0  0  0  0
 71 72  4  0  0  0  0
M  END
$$$$
