mol_ETKDG5_127
  PyMOL3.1          3D                             0

 73 79  0  0  0  0  0  0  0  0999 V2000
    0.1198   15.5798  -12.7823 C   0  0  0  0  0  0  0  0  0  0  0  0
    0.1091   15.2274  -11.3022 C   0  0  0  0  0  0  0  0  0  0  0  0
   -0.0948   16.3443  -10.4644 O   0  0  0  0  0  0  0  0  0  0  0  0
   -1.4269   16.7741  -10.2117 C   0  0  0  0  0  0  0  0  0  0  0  0
    1.3684   14.5927  -10.8739 C   0  0  0  0  0  0  0  0  0  0  0  0
    2.5078   15.2112  -11.1665 N   0  0  0  0  0  0  0  0  0  0  0  0
    3.6861   14.6643  -10.8087 C   0  0  0  0  0  0  0  0  0  0  0  0
    3.7375   13.4345  -10.1395 C   0  0  0  0  0  0  0  0  0  0  0  0
    2.5640   12.8006   -9.8458 C   0  0  0  0  0  0  0  0  0  0  0  0
    1.3768   13.3765  -10.2111 C   0  0  0  0  0  0  0  0  0  0  0  0
    0.1284   12.7219   -9.8587 C   0  0  0  0  0  0  0  0  0  0  0  0
   -0.4479   11.7144  -10.5707 N   0  0  0  0  0  0  0  0  0  0  0  0
    0.0905   11.0534  -11.7609 C   0  0  0  0  0  0  0  0  0  0  0  0
    0.6900    9.6988  -11.3512 C   0  0  0  0  0  0  0  0  0  0  0  0
   -0.6983   13.0597   -8.7919 C   0  0  0  0  0  0  0  0  0  0  0  0
   -0.5246   14.0616   -7.7111 C   0  0  0  0  0  0  0  0  0  0  0  0
    0.1859   13.5165   -6.4265 C   0  0  0  0  0  0  0  0  0  0  0  0
   -0.4278   14.2177   -5.2077 C   0  0  0  0  0  0  0  0  0  0  0  0
    1.6967   13.8575   -6.4718 C   0  0  0  0  0  0  0  0  0  0  0  0
    0.1231   12.0802   -6.2562 C   0  0  0  0  0  0  0  0  0  0  0  0
   -0.6040   11.5237   -5.1202 O   0  0  0  0  0  0  0  0  0  0  0  0
   -0.9392   10.1578   -5.0287 C   0  0  0  0  0  0  0  0  0  0  0  0
   -1.6677    9.8106   -3.7692 C   0  0  0  0  0  0  0  0  0  0  0  0
   -2.3491    8.5417   -3.9736 N   0  0  0  0  0  0  0  0  0  0  0  0
   -3.0372    8.0957   -2.8630 N   0  0  0  0  0  0  0  0  0  0  0  0
   -4.4014    7.9891   -2.8758 C   0  0  0  0  0  0  0  0  0  0  0  0
   -5.1049    8.2959   -4.1767 C   0  0  0  0  0  0  0  0  0  0  0  0
   -6.2889    7.4886   -4.3807 N   0  0  0  0  0  0  0  0  0  0  0  0
   -6.3780    6.5191   -5.3111 C   0  0  0  0  0  0  0  0  0  0  0  0
   -7.7527    5.9361   -5.4524 C   0  0  0  0  0  0  0  0  0  0  0  0
   -7.8359    4.4209   -5.0802 C   0  0  0  0  0  0  0  0  0  0  0  0
   -9.2535    3.9071   -5.3025 C   0  0  0  0  0  0  0  0  0  0  0  0
   -7.4509    4.2309   -3.6046 C   0  0  0  0  0  0  0  0  0  0  0  0
   -8.2293    6.1793   -6.7983 N   0  0  0  0  0  0  0  0  0  0  0  0
   -9.1207    7.1912   -6.9865 C   0  0  0  0  0  0  0  0  0  0  0  0
   -9.8436    7.3229   -8.3103 C   0  0  0  0  0  0  0  0  0  0  0  0
  -10.8364    8.4775   -8.3381 C   0  0  0  0  0  0  0  0  0  0  0  0
  -11.6028    8.4576   -9.6161 C   0  0  0  0  0  0  0  0  0  0  0  0
  -12.1904    7.1203   -9.8348 N   0  0  0  0  0  0  0  0  0  0  0  0
  -13.5077    6.8510  -10.0189 C   0  0  0  0  0  0  0  0  0  0  0  0
  -14.4457    7.8621   -9.8692 C   0  0  0  0  0  0  0  0  0  0  0  0
  -15.3246    8.5916   -9.7789 C   0  0  0  0  0  0  0  0  0  0  0  0
  -16.2954    9.6081   -9.5568 C   0  0  0  0  0  0  0  0  0  0  0  0
  -16.4226    9.8842   -8.1236 N   0  0  0  0  0  0  0  0  0  0  0  0
  -16.2540    8.7609   -7.2263 C   0  0  0  0  0  0  0  0  0  0  0  0
  -17.4247   10.8391   -7.7218 C   0  0  0  0  0  0  0  0  0  0  0  0
  -17.6353    9.1328  -10.1221 C   0  0  0  0  0  0  0  0  0  0  0  0
  -15.8469   10.8884  -10.2783 C   0  0  0  0  0  0  0  0  0  0  0  0
  -13.8848    5.7172  -10.2870 O   0  0  0  0  0  0  0  0  0  0  0  0
  -11.2994    5.9951   -9.8021 C   0  0  0  0  0  0  0  0  0  0  0  0
  -10.6316    6.0272   -8.4835 C   0  0  0  0  0  0  0  0  0  0  0  0
   -9.3802    7.9831   -6.0631 O   0  0  0  0  0  0  0  0  0  0  0  0
   -7.6831    5.3034   -7.8861 C   0  0  0  0  0  0  0  0  0  0  0  0
   -5.4325    6.1744   -6.0166 O   0  0  0  0  0  0  0  0  0  0  0  0
   -5.5490    9.7889   -4.1190 C   0  0  0  0  0  0  0  0  0  0  0  0
   -5.9733   10.2899   -5.4869 C   0  0  0  0  0  0  0  0  0  0  0  0
   -4.7195   10.5401   -6.2924 C   0  0  0  0  0  0  0  0  0  0  0  0
   -5.0578   11.1581   -7.5862 N   0  0  0  0  0  0  0  0  0  0  0  0
   -5.9189   12.4034   -7.3774 C   0  0  0  0  0  0  0  0  0  0  0  0
   -7.1484   12.0541   -6.5862 C   0  0  0  0  0  0  0  0  0  0  0  0
   -6.7524   11.4702   -5.3260 O   0  0  0  0  0  0  0  0  0  0  0  0
   -5.0415    7.7335   -1.8855 O   0  0  0  0  0  0  0  0  0  0  0  0
   -2.2123    7.8766   -1.6750 C   0  0  0  0  0  0  0  0  0  0  0  0
   -1.4575    9.2024   -1.3556 C   0  0  0  0  0  0  0  0  0  0  0  0
   -0.7109    9.6863   -2.5810 C   0  0  0  0  0  0  0  0  0  0  0  0
   -0.7154    9.2432   -5.8612 O   0  0  0  0  0  0  0  0  0  0  0  0
   -1.7830   12.2133   -8.8944 C   0  0  0  0  0  0  0  0  0  0  0  0
   -1.5999   11.3817   -9.9862 C   0  0  0  0  0  0  0  0  0  0  0  0
   -2.6053   10.4066  -10.2861 C   0  0  0  0  0  0  0  0  0  0  0  0
   -3.7248   10.3365   -9.4641 C   0  0  0  0  0  0  0  0  0  0  0  0
   -3.8959   11.2316   -8.3827 C   0  0  0  0  0  0  0  0  0  0  0  0
   -2.8793   12.1541   -8.1062 C   0  0  0  0  0  0  0  0  0  0  0  0
   -8.9163    7.5128   -9.3297 F   0  0  0  0  0  0  0  0  0  0  0  0
  1  2  1  0  0  0  0
  2  3  1  0  0  0  0
  2  5  1  0  0  0  0
  3  4  1  0  0  0  0
  5  6  4  0  0  0  0
  5 10  4  0  0  0  0
  6  7  4  0  0  0  0
  7  8  4  0  0  0  0
  8  9  4  0  0  0  0
  9 10  4  0  0  0  0
 10 11  1  0  0  0  0
 11 12  4  0  0  0  0
 11 15  4  0  0  0  0
 12 13  1  0  0  0  0
 12 68  4  0  0  0  0
 13 14  1  0  0  0  0
 15 16  1  0  0  0  0
 15 67  4  0  0  0  0
 16 17  1  0  0  0  0
 17 18  1  0  0  0  0
 17 19  1  0  0  0  0
 17 20  1  0  0  0  0
 20 21  1  0  0  0  0
 21 22  1  0  0  0  0
 22 23  1  0  0  0  0
 22 66  2  0  0  0  0
 23 24  1  0  0  0  0
 23 65  1  0  0  0  0
 24 25  1  0  0  0  0
 25 26  1  0  0  0  0
 25 63  1  0  0  0  0
 26 27  1  0  0  0  0
 26 62  2  0  0  0  0
 27 28  1  0  0  0  0
 27 55  1  0  0  0  0
 28 29  1  0  0  0  0
 29 30  1  0  0  0  0
 29 54  2  0  0  0  0
 30 31  1  0  0  0  0
 30 34  1  0  0  0  0
 31 32  1  0  0  0  0
 31 33  1  0  0  0  0
 34 35  1  0  0  0  0
 34 53  1  0  0  0  0
 35 36  1  0  0  0  0
 35 52  2  0  0  0  0
 36 37  1  0  0  0  0
 36 51  1  0  0  0  0
 36 73  1  0  0  0  0
 37 38  1  0  0  0  0
 38 39  1  0  0  0  0
 39 40  1  0  0  0  0
 39 50  1  0  0  0  0
 40 41  1  0  0  0  0
 40 49  2  0  0  0  0
 41 42  1  0  0  0  0
 42 43  1  0  0  0  0
 43 44  1  0  0  0  0
 43 47  1  0  0  0  0
 43 48  1  0  0  0  0
 44 45  1  0  0  0  0
 44 46  1  0  0  0  0
 50 51  1  0  0  0  0
 55 56  1  0  0  0  0
 56 57  1  0  0  0  0
 56 61  1  0  0  0  0
 57 58  1  0  0  0  0
 58 59  1  0  0  0  0
 58 71  1  0  0  0  0
 59 60  1  0  0  0  0
 60 61  1  0  0  0  0
 63 64  1  0  0  0  0
 64 65  1  0  0  0  0
 67 68  4  0  0  0  0
 67 72  4  0  0  0  0
 68 69  4  0  0  0  0
 69 70  4  0  0  0  0
 70 71  4  0  0  0  0
 71 72  4  0  0  0  0
M  END
$$$$
