mol_ETKDG4_125
  PyMOL3.1          3D                             0

 73 79  0  0  0  0  0  0  0  0999 V2000
   -0.4395   14.5855  -13.3263 C   0  0  0  0  0  0  0  0  0  0  0  0
   -0.3035   14.7052  -11.8075 C   0  0  0  0  0  0  0  0  0  0  0  0
   -0.3343   16.0411  -11.3468 O   0  0  0  0  0  0  0  0  0  0  0  0
   -1.5127   16.4855  -10.7066 C   0  0  0  0  0  0  0  0  0  0  0  0
    0.9529   14.0966  -11.3297 C   0  0  0  0  0  0  0  0  0  0  0  0
    2.0895   14.6653  -11.6826 N   0  0  0  0  0  0  0  0  0  0  0  0
    3.2645   14.1230  -11.2874 C   0  0  0  0  0  0  0  0  0  0  0  0
    3.3029   12.9605  -10.5253 C   0  0  0  0  0  0  0  0  0  0  0  0
    2.1221   12.3739  -10.1758 C   0  0  0  0  0  0  0  0  0  0  0  0
    0.9540   12.9411  -10.5760 C   0  0  0  0  0  0  0  0  0  0  0  0
   -0.2806   12.3402  -10.1681 C   0  0  0  0  0  0  0  0  0  0  0  0
   -0.9033   11.3394  -10.8459 N   0  0  0  0  0  0  0  0  0  0  0  0
   -0.4440   10.6605  -12.0641 C   0  0  0  0  0  0  0  0  0  0  0  0
    0.1653    9.3003  -11.7158 C   0  0  0  0  0  0  0  0  0  0  0  0
   -1.0560   12.7224   -9.0764 C   0  0  0  0  0  0  0  0  0  0  0  0
   -0.8367   13.7740   -8.0346 C   0  0  0  0  0  0  0  0  0  0  0  0
   -0.1046   13.3005   -6.7463 C   0  0  0  0  0  0  0  0  0  0  0  0
   -0.7108   14.0317   -5.5444 C   0  0  0  0  0  0  0  0  0  0  0  0
    1.3940   13.6580   -6.8308 C   0  0  0  0  0  0  0  0  0  0  0  0
   -0.1451   11.8795   -6.5194 C   0  0  0  0  0  0  0  0  0  0  0  0
   -0.7972   11.3737   -5.3213 O   0  0  0  0  0  0  0  0  0  0  0  0
   -1.0694   10.0078   -5.1333 C   0  0  0  0  0  0  0  0  0  0  0  0
   -1.7633    9.7112   -3.8503 C   0  0  0  0  0  0  0  0  0  0  0  0
   -2.4677    8.4512   -4.0094 N   0  0  0  0  0  0  0  0  0  0  0  0
   -3.1342    8.0397   -2.8779 N   0  0  0  0  0  0  0  0  0  0  0  0
   -4.4932    7.9434   -2.8718 C   0  0  0  0  0  0  0  0  0  0  0  0
   -5.2106    8.2121   -4.1625 C   0  0  0  0  0  0  0  0  0  0  0  0
   -6.3781    7.3880   -4.3288 N   0  0  0  0  0  0  0  0  0  0  0  0
   -6.4657    6.4004   -5.2371 C   0  0  0  0  0  0  0  0  0  0  0  0
   -7.8282    5.8125   -5.3432 C   0  0  0  0  0  0  0  0  0  0  0  0
   -7.8932    4.3051   -4.9616 C   0  0  0  0  0  0  0  0  0  0  0  0
   -9.3019    3.7698   -5.1864 C   0  0  0  0  0  0  0  0  0  0  0  0
   -7.5153    4.1294   -3.4873 C   0  0  0  0  0  0  0  0  0  0  0  0
   -8.3446    6.0520   -6.6689 N   0  0  0  0  0  0  0  0  0  0  0  0
   -9.2405    7.0609   -6.8136 C   0  0  0  0  0  0  0  0  0  0  0  0
  -10.0675    7.1697   -8.0696 C   0  0  0  0  0  0  0  0  0  0  0  0
  -11.1517    8.2395   -7.9072 C   0  0  0  0  0  0  0  0  0  0  0  0
  -12.1242    8.1872   -9.0302 C   0  0  0  0  0  0  0  0  0  0  0  0
  -12.6109    6.8087   -9.1769 N   0  0  0  0  0  0  0  0  0  0  0  0
  -13.8666    6.3560   -8.9082 C   0  0  0  0  0  0  0  0  0  0  0  0
  -14.7504    7.1075   -8.1214 C   0  0  0  0  0  0  0  0  0  0  0  0
  -15.5637    7.6003   -7.4760 C   0  0  0  0  0  0  0  0  0  0  0  0
  -16.4901    8.2672   -6.5900 C   0  0  0  0  0  0  0  0  0  0  0  0
  -15.8323    8.5501   -5.2975 N   0  0  0  0  0  0  0  0  0  0  0  0
  -15.4170    7.3385   -4.5721 C   0  0  0  0  0  0  0  0  0  0  0  0
  -14.7490    9.5410   -5.3779 C   0  0  0  0  0  0  0  0  0  0  0  0
  -17.6928    7.3621   -6.3476 C   0  0  0  0  0  0  0  0  0  0  0  0
  -16.9350    9.5776   -7.2493 C   0  0  0  0  0  0  0  0  0  0  0  0
  -14.2226    5.2478   -9.3021 O   0  0  0  0  0  0  0  0  0  0  0  0
  -11.6224    5.8271   -9.4656 C   0  0  0  0  0  0  0  0  0  0  0  0
  -10.7564    5.8238   -8.2421 C   0  0  0  0  0  0  0  0  0  0  0  0
   -9.4311    7.8700   -5.8911 O   0  0  0  0  0  0  0  0  0  0  0  0
   -7.8403    5.1848   -7.7765 C   0  0  0  0  0  0  0  0  0  0  0  0
   -5.5250    6.0536   -5.9403 O   0  0  0  0  0  0  0  0  0  0  0  0
   -5.6820    9.7007   -4.1479 C   0  0  0  0  0  0  0  0  0  0  0  0
   -6.1533   10.1166   -5.5265 C   0  0  0  0  0  0  0  0  0  0  0  0
   -4.9395   10.4145   -6.3594 C   0  0  0  0  0  0  0  0  0  0  0  0
   -5.3547   10.8982   -7.6889 N   0  0  0  0  0  0  0  0  0  0  0  0
   -6.2654   12.1028   -7.5556 C   0  0  0  0  0  0  0  0  0  0  0  0
   -7.4645   11.7242   -6.7263 C   0  0  0  0  0  0  0  0  0  0  0  0
   -7.0122   11.2533   -5.4314 O   0  0  0  0  0  0  0  0  0  0  0  0
   -5.1221    7.7136   -1.8606 O   0  0  0  0  0  0  0  0  0  0  0  0
   -2.2907    7.8342   -1.7027 C   0  0  0  0  0  0  0  0  0  0  0  0
   -1.5160    9.1546   -1.4305 C   0  0  0  0  0  0  0  0  0  0  0  0
   -0.7817    9.5998   -2.6843 C   0  0  0  0  0  0  0  0  0  0  0  0
   -0.8218    9.0351   -5.9016 O   0  0  0  0  0  0  0  0  0  0  0  0
   -2.1497   11.9010   -9.1254 C   0  0  0  0  0  0  0  0  0  0  0  0
   -2.0305   11.0408  -10.2170 C   0  0  0  0  0  0  0  0  0  0  0  0
   -3.0543   10.0882  -10.4645 C   0  0  0  0  0  0  0  0  0  0  0  0
   -4.1390   10.0516   -9.6057 C   0  0  0  0  0  0  0  0  0  0  0  0
   -4.2432   10.9556   -8.5292 C   0  0  0  0  0  0  0  0  0  0  0  0
   -3.2249   11.8742   -8.2956 C   0  0  0  0  0  0  0  0  0  0  0  0
   -9.2460    7.4712   -9.1447 F   0  0  0  0  0  0  0  0  0  0  0  0
  1  2  1  0  0  0  0
  2  3  1  0  0  0  0
  2  5  1  0  0  0  0
  3  4  1  0  0  0  0
  5  6  4  0  0  0  0
  5 10  4  0  0  0  0
  6  7  4  0  0  0  0
  7  8  4  0  0  0  0
  8  9  4  0  0  0  0
  9 10  4  0  0  0  0
 10 11  1  0  0  0  0
 11 12  4  0  0  0  0
 11 15  4  0  0  0  0
 12 13  1  0  0  0  0
 12 68  4  0  0  0  0
 13 14  1  0  0  0  0
 15 16  1  0  0  0  0
 15 67  4  0  0  0  0
 16 17  1  0  0  0  0
 17 18  1  0  0  0  0
 17 19  1  0  0  0  0
 17 20  1  0  0  0  0
 20 21  1  0  0  0  0
 21 22  1  0  0  0  0
 22 23  1  0  0  0  0
 22 66  2  0  0  0  0
 23 24  1  0  0  0  0
 23 65  1  0  0  0  0
 24 25  1  0  0  0  0
 25 26  1  0  0  0  0
 25 63  1  0  0  0  0
 26 27  1  0  0  0  0
 26 62  2  0  0  0  0
 27 28  1  0  0  0  0
 27 55  1  0  0  0  0
 28 29  1  0  0  0  0
 29 30  1  0  0  0  0
 29 54  2  0  0  0  0
 30 31  1  0  0  0  0
 30 34  1  0  0  0  0
 31 32  1  0  0  0  0
 31 33  1  0  0  0  0
 34 35  1  0  0  0  0
 34 53  1  0  0  0  0
 35 36  1  0  0  0  0
 35 52  2  0  0  0  0
 36 37  1  0  0  0  0
 36 51  1  0  0  0  0
 36 73  1  0  0  0  0
 37 38  1  0  0  0  0
 38 39  1  0  0  0  0
 39 40  1  0  0  0  0
 39 50  1  0  0  0  0
 40 41  1  0  0  0  0
 40 49  2  0  0  0  0
 41 42  1  0  0  0  0
 42 43  1  0  0  0  0
 43 44  1  0  0  0  0
 43 47  1  0  0  0  0
 43 48  1  0  0  0  0
 44 45  1  0  0  0  0
 44 46  1  0  0  0  0
 50 51  1  0  0  0  0
 55 56  1  0  0  0  0
 56 57  1  0  0  0  0
 56 61  1  0  0  0  0
 57 58  1  0  0  0  0
 58 59  1  0  0  0  0
 58 71  1  0  0  0  0
 59 60  1  0  0  0  0
 60 61  1  0  0  0  0
 63 64  1  0  0  0  0
 64 65  1  0  0  0  0
 67 68  4  0  0  0  0
 67 72  4  0  0  0  0
 68 69  4  0  0  0  0
 69 70  4  0  0  0  0
 70 71  4  0  0  0  0
 71 72  4  0  0  0  0
M  END
$$$$
