mol_ETKDG0_162
  PyMOL3.1          3D                             0

 73 79  0  0  0  0  0  0  0  0999 V2000
    0.1813   16.8780  -11.0570 C   0  0  0  0  0  0  0  0  0  0  0  0
    0.0570   15.3816  -10.9471 C   0  0  0  0  0  0  0  0  0  0  0  0
   -0.3729   14.7799  -12.1138 O   0  0  0  0  0  0  0  0  0  0  0  0
   -1.7717   14.8039  -12.3785 C   0  0  0  0  0  0  0  0  0  0  0  0
    1.3236   14.7331  -10.5603 C   0  0  0  0  0  0  0  0  0  0  0  0
    2.4704   15.3453  -10.8230 N   0  0  0  0  0  0  0  0  0  0  0  0
    3.6403   14.7693  -10.5001 C   0  0  0  0  0  0  0  0  0  0  0  0
    3.6785   13.5310   -9.8632 C   0  0  0  0  0  0  0  0  0  0  0  0
    2.5018   12.9080   -9.5966 C   0  0  0  0  0  0  0  0  0  0  0  0
    1.3250   13.4951   -9.9669 C   0  0  0  0  0  0  0  0  0  0  0  0
    0.0867   12.8322   -9.6742 C   0  0  0  0  0  0  0  0  0  0  0  0
   -0.4755   11.8523  -10.4283 N   0  0  0  0  0  0  0  0  0  0  0  0
    0.0688   11.2166  -11.6260 C   0  0  0  0  0  0  0  0  0  0  0  0
    0.6706    9.8580  -11.2412 C   0  0  0  0  0  0  0  0  0  0  0  0
   -0.7591   13.1341   -8.6187 C   0  0  0  0  0  0  0  0  0  0  0  0
   -0.6103   14.1227   -7.5190 C   0  0  0  0  0  0  0  0  0  0  0  0
    0.0240   13.5595   -6.2235 C   0  0  0  0  0  0  0  0  0  0  0  0
   -0.6795   14.1911   -5.0282 C   0  0  0  0  0  0  0  0  0  0  0  0
    1.5240   13.9173   -6.1639 C   0  0  0  0  0  0  0  0  0  0  0  0
   -0.0245   12.1154   -6.1174 C   0  0  0  0  0  0  0  0  0  0  0  0
   -0.7170   11.5047   -5.0250 O   0  0  0  0  0  0  0  0  0  0  0  0
   -0.9796   10.1234   -4.9630 C   0  0  0  0  0  0  0  0  0  0  0  0
   -1.7070    9.7373   -3.7322 C   0  0  0  0  0  0  0  0  0  0  0  0
   -2.3909    8.4708   -3.9666 N   0  0  0  0  0  0  0  0  0  0  0  0
   -3.0732    8.0180   -2.8665 N   0  0  0  0  0  0  0  0  0  0  0  0
   -4.4287    7.9281   -2.8702 C   0  0  0  0  0  0  0  0  0  0  0  0
   -5.1284    8.2458   -4.1602 C   0  0  0  0  0  0  0  0  0  0  0  0
   -6.3114    7.4434   -4.3599 N   0  0  0  0  0  0  0  0  0  0  0  0
   -6.3944    6.4911   -5.2847 C   0  0  0  0  0  0  0  0  0  0  0  0
   -7.7594    5.8909   -5.3966 C   0  0  0  0  0  0  0  0  0  0  0  0
   -7.8205    4.3855   -5.0137 C   0  0  0  0  0  0  0  0  0  0  0  0
   -9.2326    3.8489   -5.2288 C   0  0  0  0  0  0  0  0  0  0  0  0
   -7.4409    4.2129   -3.5403 C   0  0  0  0  0  0  0  0  0  0  0  0
   -8.2706    6.1163   -6.7174 N   0  0  0  0  0  0  0  0  0  0  0  0
   -9.1508    7.1303   -6.8773 C   0  0  0  0  0  0  0  0  0  0  0  0
   -9.9314    7.2196   -8.1452 C   0  0  0  0  0  0  0  0  0  0  0  0
  -10.7661    8.4806   -8.2124 C   0  0  0  0  0  0  0  0  0  0  0  0
  -11.6080    8.4382   -9.4221 C   0  0  0  0  0  0  0  0  0  0  0  0
  -12.3795    7.1886   -9.4331 N   0  0  0  0  0  0  0  0  0  0  0  0
  -13.7169    7.1176   -9.4282 C   0  0  0  0  0  0  0  0  0  0  0  0
  -14.4401    8.2806   -9.3448 C   0  0  0  0  0  0  0  0  0  0  0  0
  -15.1608    9.1381   -9.2851 C   0  0  0  0  0  0  0  0  0  0  0  0
  -15.9543   10.2939   -9.1195 C   0  0  0  0  0  0  0  0  0  0  0  0
  -15.6944   10.8463   -7.8156 N   0  0  0  0  0  0  0  0  0  0  0  0
  -15.6686    9.9539   -6.6944 C   0  0  0  0  0  0  0  0  0  0  0  0
  -15.9694   12.2103   -7.5534 C   0  0  0  0  0  0  0  0  0  0  0  0
  -17.4319    9.9128   -9.2161 C   0  0  0  0  0  0  0  0  0  0  0  0
  -15.5625   11.2973  -10.2165 C   0  0  0  0  0  0  0  0  0  0  0  0
  -14.2868    6.0390   -9.4725 O   0  0  0  0  0  0  0  0  0  0  0  0
  -11.6505    5.9592   -9.3804 C   0  0  0  0  0  0  0  0  0  0  0  0
  -10.8557    6.0101   -8.1395 C   0  0  0  0  0  0  0  0  0  0  0  0
   -9.3653    7.9372   -5.9574 O   0  0  0  0  0  0  0  0  0  0  0  0
   -7.7831    5.2251   -7.8046 C   0  0  0  0  0  0  0  0  0  0  0  0
   -5.4669    6.1637   -6.0029 O   0  0  0  0  0  0  0  0  0  0  0  0
   -5.5563    9.7403   -4.0852 C   0  0  0  0  0  0  0  0  0  0  0  0
   -5.9797   10.2548   -5.4350 C   0  0  0  0  0  0  0  0  0  0  0  0
   -4.7420   10.5078   -6.2502 C   0  0  0  0  0  0  0  0  0  0  0  0
   -5.0845   11.1789   -7.5127 N   0  0  0  0  0  0  0  0  0  0  0  0
   -5.9407   12.4342   -7.2216 C   0  0  0  0  0  0  0  0  0  0  0  0
   -7.1451   12.0660   -6.4554 C   0  0  0  0  0  0  0  0  0  0  0  0
   -6.7486   11.4380   -5.2351 O   0  0  0  0  0  0  0  0  0  0  0  0
   -5.0718    7.6804   -1.8768 O   0  0  0  0  0  0  0  0  0  0  0  0
   -2.2452    7.7718   -1.6839 C   0  0  0  0  0  0  0  0  0  0  0  0
   -1.5114    9.0703   -1.3413 C   0  0  0  0  0  0  0  0  0  0  0  0
   -0.7518    9.5807   -2.5477 C   0  0  0  0  0  0  0  0  0  0  0  0
   -0.6907    9.2240   -5.7896 O   0  0  0  0  0  0  0  0  0  0  0  0
   -1.8270   12.2877   -8.7615 C   0  0  0  0  0  0  0  0  0  0  0  0
   -1.6305   11.4937   -9.8737 C   0  0  0  0  0  0  0  0  0  0  0  0
   -2.6134   10.5303  -10.2155 C   0  0  0  0  0  0  0  0  0  0  0  0
   -3.7445   10.4258   -9.4045 C   0  0  0  0  0  0  0  0  0  0  0  0
   -3.9243   11.2805   -8.3022 C   0  0  0  0  0  0  0  0  0  0  0  0
   -2.9087   12.1922   -7.9917 C   0  0  0  0  0  0  0  0  0  0  0  0
   -9.0886    7.2144   -9.2478 F   0  0  0  0  0  0  0  0  0  0  0  0
  1  2  1  0  0  0  0
  2  3  1  0  0  0  0
  2  5  1  0  0  0  0
  3  4  1  0  0  0  0
  5  6  4  0  0  0  0
  5 10  4  0  0  0  0
  6  7  4  0  0  0  0
  7  8  4  0  0  0  0
  8  9  4  0  0  0  0
  9 10  4  0  0  0  0
 10 11  1  0  0  0  0
 11 12  4  0  0  0  0
 11 15  4  0  0  0  0
 12 13  1  0  0  0  0
 12 68  4  0  0  0  0
 13 14  1  0  0  0  0
 15 16  1  0  0  0  0
 15 67  4  0  0  0  0
 16 17  1  0  0  0  0
 17 18  1  0  0  0  0
 17 19  1  0  0  0  0
 17 20  1  0  0  0  0
 20 21  1  0  0  0  0
 21 22  1  0  0  0  0
 22 23  1  0  0  0  0
 22 66  2  0  0  0  0
 23 24  1  0  0  0  0
 23 65  1  0  0  0  0
 24 25  1  0  0  0  0
 25 26  1  0  0  0  0
 25 63  1  0  0  0  0
 26 27  1  0  0  0  0
 26 62  2  0  0  0  0
 27 28  1  0  0  0  0
 27 55  1  0  0  0  0
 28 29  1  0  0  0  0
 29 30  1  0  0  0  0
 29 54  2  0  0  0  0
 30 31  1  0  0  0  0
 30 34  1  0  0  0  0
 31 32  1  0  0  0  0
 31 33  1  0  0  0  0
 34 35  1  0  0  0  0
 34 53  1  0  0  0  0
 35 36  1  0  0  0  0
 35 52  2  0  0  0  0
 36 37  1  0  0  0  0
 36 51  1  0  0  0  0
 36 73  1  0  0  0  0
 37 38  1  0  0  0  0
 38 39  1  0  0  0  0
 39 40  1  0  0  0  0
 39 50  1  0  0  0  0
 40 41  1  0  0  0  0
 40 49  2  0  0  0  0
 41 42  1  0  0  0  0
 42 43  1  0  0  0  0
 43 44  1  0  0  0  0
 43 47  1  0  0  0  0
 43 48  1  0  0  0  0
 44 45  1  0  0  0  0
 44 46  1  0  0  0  0
 50 51  1  0  0  0  0
 55 56  1  0  0  0  0
 56 57  1  0  0  0  0
 56 61  1  0  0  0  0
 57 58  1  0  0  0  0
 58 59  1  0  0  0  0
 58 71  1  0  0  0  0
 59 60  1  0  0  0  0
 60 61  1  0  0  0  0
 63 64  1  0  0  0  0
 64 65  1  0  0  0  0
 67 68  4  0  0  0  0
 67 72  4  0  0  0  0
 68 69  4  0  0  0  0
 69 70  4  0  0  0  0
 70 71  4  0  0  0  0
 71 72  4  0  0  0  0
M  END
$$$$
