mol_ETKDG3_83
  PyMOL3.1          3D                             0

 73 79  0  0  0  0  0  0  0  0999 V2000
   -0.1707   16.2823  -11.0240 C   0  0  0  0  0  0  0  0  0  0  0  0
   -0.0950   14.8938  -11.6574 C   0  0  0  0  0  0  0  0  0  0  0  0
   -0.1275   14.9445  -13.0631 O   0  0  0  0  0  0  0  0  0  0  0  0
   -1.0465   14.0745  -13.7029 C   0  0  0  0  0  0  0  0  0  0  0  0
    1.1385   14.1858  -11.2488 C   0  0  0  0  0  0  0  0  0  0  0  0
    2.2992   14.7159  -11.5912 N   0  0  0  0  0  0  0  0  0  0  0  0
    3.4520   14.1123  -11.2654 C   0  0  0  0  0  0  0  0  0  0  0  0
    3.4568   12.9153  -10.5392 C   0  0  0  0  0  0  0  0  0  0  0  0
    2.2592   12.3687  -10.1815 C   0  0  0  0  0  0  0  0  0  0  0  0
    1.1061   12.9994  -10.5417 C   0  0  0  0  0  0  0  0  0  0  0  0
   -0.1440   12.4176  -10.1477 C   0  0  0  0  0  0  0  0  0  0  0  0
   -0.7819   11.4413  -10.8479 N   0  0  0  0  0  0  0  0  0  0  0  0
   -0.3475   10.7886  -12.0891 C   0  0  0  0  0  0  0  0  0  0  0  0
    0.2419    9.4166  -11.7835 C   0  0  0  0  0  0  0  0  0  0  0  0
   -0.9147   12.7838   -9.0533 C   0  0  0  0  0  0  0  0  0  0  0  0
   -0.6979   13.8208   -7.9911 C   0  0  0  0  0  0  0  0  0  0  0  0
    0.0358   13.3185   -6.7139 C   0  0  0  0  0  0  0  0  0  0  0  0
   -0.5401   14.0565   -5.5033 C   0  0  0  0  0  0  0  0  0  0  0  0
    1.5382   13.6576   -6.8269 C   0  0  0  0  0  0  0  0  0  0  0  0
   -0.0276   11.9025   -6.4968 C   0  0  0  0  0  0  0  0  0  0  0  0
   -0.6888   11.3857   -5.3052 O   0  0  0  0  0  0  0  0  0  0  0  0
   -0.9711   10.0176   -5.1330 C   0  0  0  0  0  0  0  0  0  0  0  0
   -1.6794    9.7088   -3.8599 C   0  0  0  0  0  0  0  0  0  0  0  0
   -2.3972    8.4524   -4.0405 N   0  0  0  0  0  0  0  0  0  0  0  0
   -3.0658    8.0237   -2.9194 N   0  0  0  0  0  0  0  0  0  0  0  0
   -4.4212    7.9161   -2.9134 C   0  0  0  0  0  0  0  0  0  0  0  0
   -5.1367    8.2209   -4.2039 C   0  0  0  0  0  0  0  0  0  0  0  0
   -6.3162    7.3981   -4.3839 N   0  0  0  0  0  0  0  0  0  0  0  0
   -6.4255    6.4192   -5.3003 C   0  0  0  0  0  0  0  0  0  0  0  0
   -7.8069    5.8583   -5.3998 C   0  0  0  0  0  0  0  0  0  0  0  0
   -7.9072    4.3485   -5.0719 C   0  0  0  0  0  0  0  0  0  0  0  0
   -9.3406    3.8651   -5.2731 C   0  0  0  0  0  0  0  0  0  0  0  0
   -7.5022    4.1197   -3.6099 C   0  0  0  0  0  0  0  0  0  0  0  0
   -8.3519    6.1935   -6.6969 N   0  0  0  0  0  0  0  0  0  0  0  0
   -9.1060    7.3213   -6.7622 C   0  0  0  0  0  0  0  0  0  0  0  0
   -9.9077    7.6336   -7.9965 C   0  0  0  0  0  0  0  0  0  0  0  0
  -11.0757    6.6740   -8.0027 C   0  0  0  0  0  0  0  0  0  0  0  0
  -11.9757    6.9950   -9.1576 C   0  0  0  0  0  0  0  0  0  0  0  0
  -12.4094    8.3598   -8.9493 N   0  0  0  0  0  0  0  0  0  0  0  0
  -13.7063    8.5766   -8.5730 C   0  0  0  0  0  0  0  0  0  0  0  0
  -14.0104    9.7604   -7.8998 C   0  0  0  0  0  0  0  0  0  0  0  0
  -14.3711   10.6688   -7.3312 C   0  0  0  0  0  0  0  0  0  0  0  0
  -14.6468   11.8522   -6.5332 C   0  0  0  0  0  0  0  0  0  0  0  0
  -15.1770   11.4376   -5.2299 N   0  0  0  0  0  0  0  0  0  0  0  0
  -14.2014   10.7707   -4.5045 C   0  0  0  0  0  0  0  0  0  0  0  0
  -16.4209   10.6488   -5.3195 C   0  0  0  0  0  0  0  0  0  0  0  0
  -13.3373   12.6471   -6.3464 C   0  0  0  0  0  0  0  0  0  0  0  0
  -15.6548   12.7048   -7.2682 C   0  0  0  0  0  0  0  0  0  0  0  0
  -14.5714    7.7515   -8.7637 O   0  0  0  0  0  0  0  0  0  0  0  0
  -11.3769    9.3786   -8.9923 C   0  0  0  0  0  0  0  0  0  0  0  0
  -10.4107    9.0919   -7.9037 C   0  0  0  0  0  0  0  0  0  0  0  0
   -9.1883    8.0791   -5.7808 O   0  0  0  0  0  0  0  0  0  0  0  0
   -8.0354    5.2973   -7.8417 C   0  0  0  0  0  0  0  0  0  0  0  0
   -5.5056    6.0667   -6.0220 O   0  0  0  0  0  0  0  0  0  0  0  0
   -5.5889    9.7059   -4.1571 C   0  0  0  0  0  0  0  0  0  0  0  0
   -6.0591   10.1653   -5.5223 C   0  0  0  0  0  0  0  0  0  0  0  0
   -4.8405   10.4457   -6.3582 C   0  0  0  0  0  0  0  0  0  0  0  0
   -5.2403   10.9885   -7.6698 N   0  0  0  0  0  0  0  0  0  0  0  0
   -6.1172   12.2189   -7.4793 C   0  0  0  0  0  0  0  0  0  0  0  0
   -7.3193   11.8513   -6.6658 C   0  0  0  0  0  0  0  0  0  0  0  0
   -6.8765   11.3253   -5.3863 O   0  0  0  0  0  0  0  0  0  0  0  0
   -5.0559    7.6647   -1.9137 O   0  0  0  0  0  0  0  0  0  0  0  0
   -2.2356    7.7998   -1.7459 C   0  0  0  0  0  0  0  0  0  0  0  0
   -1.4508    9.1081   -1.4468 C   0  0  0  0  0  0  0  0  0  0  0  0
   -0.7124    9.5687   -2.6902 C   0  0  0  0  0  0  0  0  0  0  0  0
   -0.7152    9.0566   -5.9080 O   0  0  0  0  0  0  0  0  0  0  0  0
   -2.0222   11.9769   -9.1094 C   0  0  0  0  0  0  0  0  0  0  0  0
   -1.9164   11.1423  -10.2180 C   0  0  0  0  0  0  0  0  0  0  0  0
   -2.9579   10.2042  -10.4811 C   0  0  0  0  0  0  0  0  0  0  0  0
   -4.0356   10.1627   -9.6167 C   0  0  0  0  0  0  0  0  0  0  0  0
   -4.1253   11.0470   -8.5146 C   0  0  0  0  0  0  0  0  0  0  0  0
   -3.0934   11.9381   -8.2715 C   0  0  0  0  0  0  0  0  0  0  0  0
   -9.1272    7.5371   -9.1422 F   0  0  0  0  0  0  0  0  0  0  0  0
  1  2  1  0  0  0  0
  2  3  1  0  0  0  0
  2  5  1  0  0  0  0
  3  4  1  0  0  0  0
  5  6  4  0  0  0  0
  5 10  4  0  0  0  0
  6  7  4  0  0  0  0
  7  8  4  0  0  0  0
  8  9  4  0  0  0  0
  9 10  4  0  0  0  0
 10 11  1  0  0  0  0
 11 12  4  0  0  0  0
 11 15  4  0  0  0  0
 12 13  1  0  0  0  0
 12 68  4  0  0  0  0
 13 14  1  0  0  0  0
 15 16  1  0  0  0  0
 15 67  4  0  0  0  0
 16 17  1  0  0  0  0
 17 18  1  0  0  0  0
 17 19  1  0  0  0  0
 17 20  1  0  0  0  0
 20 21  1  0  0  0  0
 21 22  1  0  0  0  0
 22 23  1  0  0  0  0
 22 66  2  0  0  0  0
 23 24  1  0  0  0  0
 23 65  1  0  0  0  0
 24 25  1  0  0  0  0
 25 26  1  0  0  0  0
 25 63  1  0  0  0  0
 26 27  1  0  0  0  0
 26 62  2  0  0  0  0
 27 28  1  0  0  0  0
 27 55  1  0  0  0  0
 28 29  1  0  0  0  0
 29 30  1  0  0  0  0
 29 54  2  0  0  0  0
 30 31  1  0  0  0  0
 30 34  1  0  0  0  0
 31 32  1  0  0  0  0
 31 33  1  0  0  0  0
 34 35  1  0  0  0  0
 34 53  1  0  0  0  0
 35 36  1  0  0  0  0
 35 52  2  0  0  0  0
 36 37  1  0  0  0  0
 36 51  1  0  0  0  0
 36 73  1  0  0  0  0
 37 38  1  0  0  0  0
 38 39  1  0  0  0  0
 39 40  1  0  0  0  0
 39 50  1  0  0  0  0
 40 41  1  0  0  0  0
 40 49  2  0  0  0  0
 41 42  1  0  0  0  0
 42 43  1  0  0  0  0
 43 44  1  0  0  0  0
 43 47  1  0  0  0  0
 43 48  1  0  0  0  0
 44 45  1  0  0  0  0
 44 46  1  0  0  0  0
 50 51  1  0  0  0  0
 55 56  1  0  0  0  0
 56 57  1  0  0  0  0
 56 61  1  0  0  0  0
 57 58  1  0  0  0  0
 58 59  1  0  0  0  0
 58 71  1  0  0  0  0
 59 60  1  0  0  0  0
 60 61  1  0  0  0  0
 63 64  1  0  0  0  0
 64 65  1  0  0  0  0
 67 68  4  0  0  0  0
 67 72  4  0  0  0  0
 68 69  4  0  0  0  0
 69 70  4  0  0  0  0
 70 71  4  0  0  0  0
 71 72  4  0  0  0  0
M  END
$$$$
