mol_ETKDG4_113
  PyMOL3.1          3D                             0

 73 79  0  0  0  0  0  0  0  0999 V2000
   -0.5661   15.9759  -11.9324 C   0  0  0  0  0  0  0  0  0  0  0  0
   -0.3781   14.4884  -12.0964 C   0  0  0  0  0  0  0  0  0  0  0  0
   -0.5177   14.0138  -13.4159 O   0  0  0  0  0  0  0  0  0  0  0  0
   -1.8318   13.7966  -13.9010 C   0  0  0  0  0  0  0  0  0  0  0  0
    0.9371   14.0351  -11.5900 C   0  0  0  0  0  0  0  0  0  0  0  0
    2.0321   14.6290  -12.0359 N   0  0  0  0  0  0  0  0  0  0  0  0
    3.2486   14.2168  -11.6052 C   0  0  0  0  0  0  0  0  0  0  0  0
    3.3716   13.1821  -10.6880 C   0  0  0  0  0  0  0  0  0  0  0  0
    2.2359   12.5737  -10.2358 C   0  0  0  0  0  0  0  0  0  0  0  0
    1.0244   12.9905  -10.6959 C   0  0  0  0  0  0  0  0  0  0  0  0
   -0.1738   12.3556  -10.2267 C   0  0  0  0  0  0  0  0  0  0  0  0
   -0.8098   11.3481  -10.8874 N   0  0  0  0  0  0  0  0  0  0  0  0
   -0.3714   10.6606  -12.1143 C   0  0  0  0  0  0  0  0  0  0  0  0
    0.3048    9.3309  -11.7536 C   0  0  0  0  0  0  0  0  0  0  0  0
   -0.9173   12.7271   -9.1091 C   0  0  0  0  0  0  0  0  0  0  0  0
   -0.6655   13.7796   -8.0693 C   0  0  0  0  0  0  0  0  0  0  0  0
    0.0601   13.3148   -6.7680 C   0  0  0  0  0  0  0  0  0  0  0  0
   -0.5502   14.0536   -5.5787 C   0  0  0  0  0  0  0  0  0  0  0  0
    1.5544   13.6829   -6.8476 C   0  0  0  0  0  0  0  0  0  0  0  0
    0.0416   11.8978   -6.5154 C   0  0  0  0  0  0  0  0  0  0  0  0
   -0.6458   11.4017   -5.3133 O   0  0  0  0  0  0  0  0  0  0  0  0
   -0.9517   10.0402   -5.1344 C   0  0  0  0  0  0  0  0  0  0  0  0
   -1.6741    9.7498   -3.8568 C   0  0  0  0  0  0  0  0  0  0  0  0
   -2.3721    8.4853   -4.0226 N   0  0  0  0  0  0  0  0  0  0  0  0
   -3.0522    8.0670   -2.9007 N   0  0  0  0  0  0  0  0  0  0  0  0
   -4.4125    7.9579   -2.9054 C   0  0  0  0  0  0  0  0  0  0  0  0
   -5.1195    8.2269   -4.1977 C   0  0  0  0  0  0  0  0  0  0  0  0
   -6.2913    7.4016   -4.3851 N   0  0  0  0  0  0  0  0  0  0  0  0
   -6.3731    6.4240   -5.3065 C   0  0  0  0  0  0  0  0  0  0  0  0
   -7.7298    5.8324   -5.4507 C   0  0  0  0  0  0  0  0  0  0  0  0
   -7.8162    4.3329   -5.0420 C   0  0  0  0  0  0  0  0  0  0  0  0
   -9.2140    3.7971   -5.3256 C   0  0  0  0  0  0  0  0  0  0  0  0
   -7.5049    4.1792   -3.5449 C   0  0  0  0  0  0  0  0  0  0  0  0
   -8.1702    6.0228   -6.8119 N   0  0  0  0  0  0  0  0  0  0  0  0
   -9.1247    6.9567   -7.0402 C   0  0  0  0  0  0  0  0  0  0  0  0
   -9.7979    7.0496   -8.3909 C   0  0  0  0  0  0  0  0  0  0  0  0
  -11.0262    7.9587   -8.3293 C   0  0  0  0  0  0  0  0  0  0  0  0
  -11.7995    7.8839   -9.6063 C   0  0  0  0  0  0  0  0  0  0  0  0
  -12.0752    6.4776   -9.9091 N   0  0  0  0  0  0  0  0  0  0  0  0
  -13.2805    5.8645   -9.8851 C   0  0  0  0  0  0  0  0  0  0  0  0
  -14.3261    6.4395   -9.1676 C   0  0  0  0  0  0  0  0  0  0  0  0
  -15.2338    6.8122   -8.5921 C   0  0  0  0  0  0  0  0  0  0  0  0
  -16.2845    7.3289   -7.7605 C   0  0  0  0  0  0  0  0  0  0  0  0
  -15.6897    7.9855   -6.5782 N   0  0  0  0  0  0  0  0  0  0  0  0
  -14.9168    7.0580   -5.7300 C   0  0  0  0  0  0  0  0  0  0  0  0
  -14.9301    9.2032   -6.8806 C   0  0  0  0  0  0  0  0  0  0  0  0
  -17.1816    6.1790   -7.2994 C   0  0  0  0  0  0  0  0  0  0  0  0
  -17.0939    8.3457   -8.5750 C   0  0  0  0  0  0  0  0  0  0  0  0
  -13.4473    4.7745  -10.4200 O   0  0  0  0  0  0  0  0  0  0  0  0
  -10.9408    5.6369  -10.0706 C   0  0  0  0  0  0  0  0  0  0  0  0
  -10.2937    5.6550   -8.7247 C   0  0  0  0  0  0  0  0  0  0  0  0
   -9.4781    7.7240   -6.1313 O   0  0  0  0  0  0  0  0  0  0  0  0
   -7.5211    5.1870   -7.8674 C   0  0  0  0  0  0  0  0  0  0  0  0
   -5.4149    6.1011   -5.9993 O   0  0  0  0  0  0  0  0  0  0  0  0
   -5.5725    9.7153   -4.1620 C   0  0  0  0  0  0  0  0  0  0  0  0
   -6.0314   10.1628   -5.5233 C   0  0  0  0  0  0  0  0  0  0  0  0
   -4.8145   10.3841   -6.3774 C   0  0  0  0  0  0  0  0  0  0  0  0
   -5.2144   10.9262   -7.6795 N   0  0  0  0  0  0  0  0  0  0  0  0
   -6.0660   12.1844   -7.4948 C   0  0  0  0  0  0  0  0  0  0  0  0
   -7.2598   11.8664   -6.6647 C   0  0  0  0  0  0  0  0  0  0  0  0
   -6.8142   11.3495   -5.3899 O   0  0  0  0  0  0  0  0  0  0  0  0
   -5.0519    7.7240   -1.8990 O   0  0  0  0  0  0  0  0  0  0  0  0
   -2.2263    7.8715   -1.7113 C   0  0  0  0  0  0  0  0  0  0  0  0
   -1.4573    9.1918   -1.4322 C   0  0  0  0  0  0  0  0  0  0  0  0
   -0.7078    9.6447   -2.6728 C   0  0  0  0  0  0  0  0  0  0  0  0
   -0.7098    9.0711   -5.9048 O   0  0  0  0  0  0  0  0  0  0  0  0
   -2.0084   11.8988   -9.1346 C   0  0  0  0  0  0  0  0  0  0  0  0
   -1.9182   11.0454  -10.2327 C   0  0  0  0  0  0  0  0  0  0  0  0
   -2.9476   10.0982  -10.4725 C   0  0  0  0  0  0  0  0  0  0  0  0
   -4.0182   10.0640   -9.5983 C   0  0  0  0  0  0  0  0  0  0  0  0
   -4.0997   10.9627   -8.5203 C   0  0  0  0  0  0  0  0  0  0  0  0
   -3.0497   11.8638   -8.2927 C   0  0  0  0  0  0  0  0  0  0  0  0
   -8.8841    7.5129   -9.3354 F   0  0  0  0  0  0  0  0  0  0  0  0
  1  2  1  0  0  0  0
  2  3  1  0  0  0  0
  2  5  1  0  0  0  0
  3  4  1  0  0  0  0
  5  6  4  0  0  0  0
  5 10  4  0  0  0  0
  6  7  4  0  0  0  0
  7  8  4  0  0  0  0
  8  9  4  0  0  0  0
  9 10  4  0  0  0  0
 10 11  1  0  0  0  0
 11 12  4  0  0  0  0
 11 15  4  0  0  0  0
 12 13  1  0  0  0  0
 12 68  4  0  0  0  0
 13 14  1  0  0  0  0
 15 16  1  0  0  0  0
 15 67  4  0  0  0  0
 16 17  1  0  0  0  0
 17 18  1  0  0  0  0
 17 19  1  0  0  0  0
 17 20  1  0  0  0  0
 20 21  1  0  0  0  0
 21 22  1  0  0  0  0
 22 23  1  0  0  0  0
 22 66  2  0  0  0  0
 23 24  1  0  0  0  0
 23 65  1  0  0  0  0
 24 25  1  0  0  0  0
 25 26  1  0  0  0  0
 25 63  1  0  0  0  0
 26 27  1  0  0  0  0
 26 62  2  0  0  0  0
 27 28  1  0  0  0  0
 27 55  1  0  0  0  0
 28 29  1  0  0  0  0
 29 30  1  0  0  0  0
 29 54  2  0  0  0  0
 30 31  1  0  0  0  0
 30 34  1  0  0  0  0
 31 32  1  0  0  0  0
 31 33  1  0  0  0  0
 34 35  1  0  0  0  0
 34 53  1  0  0  0  0
 35 36  1  0  0  0  0
 35 52  2  0  0  0  0
 36 37  1  0  0  0  0
 36 51  1  0  0  0  0
 36 73  1  0  0  0  0
 37 38  1  0  0  0  0
 38 39  1  0  0  0  0
 39 40  1  0  0  0  0
 39 50  1  0  0  0  0
 40 41  1  0  0  0  0
 40 49  2  0  0  0  0
 41 42  1  0  0  0  0
 42 43  1  0  0  0  0
 43 44  1  0  0  0  0
 43 47  1  0  0  0  0
 43 48  1  0  0  0  0
 44 45  1  0  0  0  0
 44 46  1  0  0  0  0
 50 51  1  0  0  0  0
 55 56  1  0  0  0  0
 56 57  1  0  0  0  0
 56 61  1  0  0  0  0
 57 58  1  0  0  0  0
 58 59  1  0  0  0  0
 58 71  1  0  0  0  0
 59 60  1  0  0  0  0
 60 61  1  0  0  0  0
 63 64  1  0  0  0  0
 64 65  1  0  0  0  0
 67 68  4  0  0  0  0
 67 72  4  0  0  0  0
 68 69  4  0  0  0  0
 69 70  4  0  0  0  0
 70 71  4  0  0  0  0
 71 72  4  0  0  0  0
M  END
$$$$
