mol_bioactive_10
  PyMOL3.1          3D                             0

 73 79  0  0  0  0  0  0  0  0999 V2000
   -0.0477   16.6534  -11.2771 C   0  0  0  0  0  0  0  0  0  0  0  0
    0.2135   15.2007  -11.6984 C   0  0  0  0  0  0  0  0  0  0  0  0
   -0.8971   14.4364  -11.6054 O   0  0  0  0  0  0  0  0  0  0  0  0
   -1.9413   14.5908  -12.5501 C   0  0  0  0  0  0  0  0  0  0  0  0
    1.3334   14.6074  -10.9223 C   0  0  0  0  0  0  0  0  0  0  0  0
    2.4912   15.1946  -11.1387 N   0  0  0  0  0  0  0  0  0  0  0  0
    3.6042   14.7323  -10.5998 C   0  0  0  0  0  0  0  0  0  0  0  0
    3.5883   13.6139   -9.7893 C   0  0  0  0  0  0  0  0  0  0  0  0
    2.4130   12.9954   -9.5358 C   0  0  0  0  0  0  0  0  0  0  0  0
    1.2708   13.4753  -10.0789 C   0  0  0  0  0  0  0  0  0  0  0  0
    0.0262   12.8179   -9.7481 C   0  0  0  0  0  0  0  0  0  0  0  0
   -0.5328   11.8181  -10.4923 N   0  0  0  0  0  0  0  0  0  0  0  0
    0.0037   11.1756  -11.6958 C   0  0  0  0  0  0  0  0  0  0  0  0
    0.5560    9.7890  -11.3433 C   0  0  0  0  0  0  0  0  0  0  0  0
   -0.8034   13.1062   -8.6782 C   0  0  0  0  0  0  0  0  0  0  0  0
   -0.6556   14.0851   -7.5739 C   0  0  0  0  0  0  0  0  0  0  0  0
    0.0307   13.5423   -6.2828 C   0  0  0  0  0  0  0  0  0  0  0  0
   -0.6619   14.1665   -5.0771 C   0  0  0  0  0  0  0  0  0  0  0  0
    1.5164   13.9591   -6.2599 C   0  0  0  0  0  0  0  0  0  0  0  0
    0.0251   12.1053   -6.1609 C   0  0  0  0  0  0  0  0  0  0  0  0
   -0.6734   11.4973   -5.0522 O   0  0  0  0  0  0  0  0  0  0  0  0
   -0.9352   10.1148   -4.9761 C   0  0  0  0  0  0  0  0  0  0  0  0
   -1.6678    9.7289   -3.7403 C   0  0  0  0  0  0  0  0  0  0  0  0
   -2.3740    8.4825   -3.9908 N   0  0  0  0  0  0  0  0  0  0  0  0
   -3.0693    8.0125   -2.9034 N   0  0  0  0  0  0  0  0  0  0  0  0
   -4.4309    7.9307   -2.9228 C   0  0  0  0  0  0  0  0  0  0  0  0
   -5.1408    8.3310   -4.1934 C   0  0  0  0  0  0  0  0  0  0  0  0
   -6.3136    7.5019   -4.4632 N   0  0  0  0  0  0  0  0  0  0  0  0
   -6.3426    6.4758   -5.3317 C   0  0  0  0  0  0  0  0  0  0  0  0
   -7.6791    5.8295   -5.4981 C   0  0  0  0  0  0  0  0  0  0  0  0
   -7.7242    4.3327   -5.0494 C   0  0  0  0  0  0  0  0  0  0  0  0
   -9.1167    3.7543   -5.3035 C   0  0  0  0  0  0  0  0  0  0  0  0
   -7.3930    4.2098   -3.5597 C   0  0  0  0  0  0  0  0  0  0  0  0
   -8.1077    5.9459   -6.8638 N   0  0  0  0  0  0  0  0  0  0  0  0
   -9.1729    6.7330   -7.1307 C   0  0  0  0  0  0  0  0  0  0  0  0
   -9.8077    6.6971   -8.4960 C   0  0  0  0  0  0  0  0  0  0  0  0
  -11.1275    7.4471   -8.5286 C   0  0  0  0  0  0  0  0  0  0  0  0
  -11.8099    7.2338   -9.8319 C   0  0  0  0  0  0  0  0  0  0  0  0
  -11.8876    5.7896  -10.1195 N   0  0  0  0  0  0  0  0  0  0  0  0
  -13.0205    5.0701  -10.2726 C   0  0  0  0  0  0  0  0  0  0  0  0
  -14.2364    5.6960  -10.0236 C   0  0  0  0  0  0  0  0  0  0  0  0
  -15.2760    6.1398   -9.8607 C   0  0  0  0  0  0  0  0  0  0  0  0
  -16.5285    6.7862   -9.5510 C   0  0  0  0  0  0  0  0  0  0  0  0
  -16.2723    7.9316   -8.6560 N   0  0  0  0  0  0  0  0  0  0  0  0
  -15.6322    7.5636   -7.3812 C   0  0  0  0  0  0  0  0  0  0  0  0
  -15.5657    9.0493   -9.3056 C   0  0  0  0  0  0  0  0  0  0  0  0
  -17.4417    5.7841   -8.8489 C   0  0  0  0  0  0  0  0  0  0  0  0
  -17.1581    7.2767  -10.8532 C   0  0  0  0  0  0  0  0  0  0  0  0
  -12.9843    3.8891  -10.5962 O   0  0  0  0  0  0  0  0  0  0  0  0
  -10.6691    5.0682  -10.1365 C   0  0  0  0  0  0  0  0  0  0  0  0
  -10.1169    5.2374   -8.7728 C   0  0  0  0  0  0  0  0  0  0  0  0
   -9.6519    7.4566   -6.2494 O   0  0  0  0  0  0  0  0  0  0  0  0
   -7.3342    5.1796   -7.8810 C   0  0  0  0  0  0  0  0  0  0  0  0
   -5.3551    6.1372   -5.9683 O   0  0  0  0  0  0  0  0  0  0  0  0
   -5.5543    9.8116   -4.0031 C   0  0  0  0  0  0  0  0  0  0  0  0
   -5.6157   10.6915   -5.2125 C   0  0  0  0  0  0  0  0  0  0  0  0
   -4.9641   10.1612   -6.4736 C   0  0  0  0  0  0  0  0  0  0  0  0
   -5.1885   11.0678   -7.6010 N   0  0  0  0  0  0  0  0  0  0  0  0
   -6.0044   12.3159   -7.2917 C   0  0  0  0  0  0  0  0  0  0  0  0
   -7.1615   12.0231   -6.4648 C   0  0  0  0  0  0  0  0  0  0  0  0
   -6.9764   11.0001   -5.4831 O   0  0  0  0  0  0  0  0  0  0  0  0
   -5.0772    7.6528   -1.9349 O   0  0  0  0  0  0  0  0  0  0  0  0
   -2.2542    7.7485   -1.7178 C   0  0  0  0  0  0  0  0  0  0  0  0
   -1.4741    9.0358   -1.3642 C   0  0  0  0  0  0  0  0  0  0  0  0
   -0.7153    9.5441   -2.5587 C   0  0  0  0  0  0  0  0  0  0  0  0
   -0.6466    9.2189   -5.8009 O   0  0  0  0  0  0  0  0  0  0  0  0
   -1.8715   12.2489   -8.8106 C   0  0  0  0  0  0  0  0  0  0  0  0
   -1.6790   11.4582   -9.9264 C   0  0  0  0  0  0  0  0  0  0  0  0
   -2.6643   10.4869  -10.2626 C   0  0  0  0  0  0  0  0  0  0  0  0
   -3.7886   10.3670   -9.4509 C   0  0  0  0  0  0  0  0  0  0  0  0
   -3.9780   11.2098   -8.3484 C   0  0  0  0  0  0  0  0  0  0  0  0
   -2.9603   12.1411   -8.0335 C   0  0  0  0  0  0  0  0  0  0  0  0
   -8.9276    7.2293   -9.4261 F   0  0  0  0  0  0  0  0  0  0  0  0
  1  2  1  0  0  0  0
  2  3  1  0  0  0  0
  2  5  1  0  0  0  0
  3  4  1  0  0  0  0
  5  6  4  0  0  0  0
  5 10  4  0  0  0  0
  6  7  4  0  0  0  0
  7  8  4  0  0  0  0
  8  9  4  0  0  0  0
  9 10  4  0  0  0  0
 10 11  1  0  0  0  0
 11 12  4  0  0  0  0
 11 15  4  0  0  0  0
 12 13  1  0  0  0  0
 12 68  4  0  0  0  0
 13 14  1  0  0  0  0
 15 16  1  0  0  0  0
 15 67  4  0  0  0  0
 16 17  1  0  0  0  0
 17 18  1  0  0  0  0
 17 19  1  0  0  0  0
 17 20  1  0  0  0  0
 20 21  1  0  0  0  0
 21 22  1  0  0  0  0
 22 23  1  0  0  0  0
 22 66  2  0  0  0  0
 23 24  1  0  0  0  0
 23 65  1  0  0  0  0
 24 25  1  0  0  0  0
 25 26  1  0  0  0  0
 25 63  1  0  0  0  0
 26 27  1  0  0  0  0
 26 62  2  0  0  0  0
 27 28  1  0  0  0  0
 27 55  1  0  0  0  0
 28 29  1  0  0  0  0
 29 30  1  0  0  0  0
 29 54  2  0  0  0  0
 30 31  1  0  0  0  0
 30 34  1  0  0  0  0
 31 32  1  0  0  0  0
 31 33  1  0  0  0  0
 34 35  1  0  0  0  0
 34 53  1  0  0  0  0
 35 36  1  0  0  0  0
 35 52  2  0  0  0  0
 36 37  1  0  0  0  0
 36 51  1  0  0  0  0
 36 73  1  0  0  0  0
 37 38  1  0  0  0  0
 38 39  1  0  0  0  0
 39 40  1  0  0  0  0
 39 50  1  0  0  0  0
 40 41  1  0  0  0  0
 40 49  2  0  0  0  0
 41 42  1  0  0  0  0
 42 43  1  0  0  0  0
 43 44  1  0  0  0  0
 43 47  1  0  0  0  0
 43 48  1  0  0  0  0
 44 45  1  0  0  0  0
 44 46  1  0  0  0  0
 50 51  1  0  0  0  0
 55 56  1  0  0  0  0
 56 57  1  0  0  0  0
 56 61  1  0  0  0  0
 57 58  1  0  0  0  0
 58 59  1  0  0  0  0
 58 71  1  0  0  0  0
 59 60  1  0  0  0  0
 60 61  1  0  0  0  0
 63 64  1  0  0  0  0
 64 65  1  0  0  0  0
 67 68  4  0  0  0  0
 67 72  4  0  0  0  0
 68 69  4  0  0  0  0
 69 70  4  0  0  0  0
 70 71  4  0  0  0  0
 71 72  4  0  0  0  0
M  END
$$$$
