mol_bioactive_8
  PyMOL3.1          3D                             0

 73 79  0  0  0  0  0  0  0  0999 V2000
   -0.2307   14.6167  -13.5015 C   0  0  0  0  0  0  0  0  0  0  0  0
   -0.2137   14.7124  -11.9790 C   0  0  0  0  0  0  0  0  0  0  0  0
   -0.3476   16.0210  -11.5001 O   0  0  0  0  0  0  0  0  0  0  0  0
   -1.5824   16.3815  -10.9086 C   0  0  0  0  0  0  0  0  0  0  0  0
    1.0415   14.1641  -11.4172 C   0  0  0  0  0  0  0  0  0  0  0  0
    2.1855   14.7006  -11.8123 N   0  0  0  0  0  0  0  0  0  0  0  0
    3.3517   14.2456  -11.3257 C   0  0  0  0  0  0  0  0  0  0  0  0
    3.3849   13.1877  -10.4150 C   0  0  0  0  0  0  0  0  0  0  0  0
    2.2087   12.6273  -10.0232 C   0  0  0  0  0  0  0  0  0  0  0  0
    1.0355   13.1123  -10.5225 C   0  0  0  0  0  0  0  0  0  0  0  0
   -0.2026   12.5353  -10.0780 C   0  0  0  0  0  0  0  0  0  0  0  0
   -0.8460   11.5478  -10.7486 N   0  0  0  0  0  0  0  0  0  0  0  0
   -0.4292   10.8773  -11.9901 C   0  0  0  0  0  0  0  0  0  0  0  0
    0.1718    9.5075  -11.6763 C   0  0  0  0  0  0  0  0  0  0  0  0
   -0.9402   12.9109   -8.9688 C   0  0  0  0  0  0  0  0  0  0  0  0
   -0.6744   13.9368   -7.9247 C   0  0  0  0  0  0  0  0  0  0  0  0
    0.0035   13.4307   -6.6133 C   0  0  0  0  0  0  0  0  0  0  0  0
   -0.6697   14.1318   -5.4337 C   0  0  0  0  0  0  0  0  0  0  0  0
    1.4997   13.8152   -6.6221 C   0  0  0  0  0  0  0  0  0  0  0  0
   -0.0200   12.0097   -6.4112 C   0  0  0  0  0  0  0  0  0  0  0  0
   -0.6784   11.4612   -5.2265 O   0  0  0  0  0  0  0  0  0  0  0  0
   -0.9320   10.0810   -5.0584 C   0  0  0  0  0  0  0  0  0  0  0  0
   -1.6484    9.7410   -3.7893 C   0  0  0  0  0  0  0  0  0  0  0  0
   -2.3721    8.4970   -3.9952 N   0  0  0  0  0  0  0  0  0  0  0  0
   -3.0528    8.0432   -2.8866 N   0  0  0  0  0  0  0  0  0  0  0  0
   -4.4188    7.9624   -2.8753 C   0  0  0  0  0  0  0  0  0  0  0  0
   -5.1492    8.3724   -4.1312 C   0  0  0  0  0  0  0  0  0  0  0  0
   -6.3421    7.5722   -4.3741 N   0  0  0  0  0  0  0  0  0  0  0  0
   -6.4367    6.5603   -5.2612 C   0  0  0  0  0  0  0  0  0  0  0  0
   -7.8158    5.9883   -5.3803 C   0  0  0  0  0  0  0  0  0  0  0  0
   -7.9076    4.4727   -5.0583 C   0  0  0  0  0  0  0  0  0  0  0  0
   -9.3546    3.9965   -5.2239 C   0  0  0  0  0  0  0  0  0  0  0  0
   -7.4539    4.2175   -3.6181 C   0  0  0  0  0  0  0  0  0  0  0  0
   -8.3592    6.3062   -6.6792 N   0  0  0  0  0  0  0  0  0  0  0  0
   -9.1495    7.4098   -6.7734 C   0  0  0  0  0  0  0  0  0  0  0  0
   -9.9800    7.6608   -7.9994 C   0  0  0  0  0  0  0  0  0  0  0  0
  -10.6004    9.0521   -7.9668 C   0  0  0  0  0  0  0  0  0  0  0  0
  -11.5635    9.2018   -9.0841 C   0  0  0  0  0  0  0  0  0  0  0  0
  -12.5311    8.1059   -9.0181 N   0  0  0  0  0  0  0  0  0  0  0  0
  -13.8593    8.2718   -8.8092 C   0  0  0  0  0  0  0  0  0  0  0  0
  -14.3700    9.5596   -8.5894 C   0  0  0  0  0  0  0  0  0  0  0  0
  -14.8931   10.5599   -8.4215 C   0  0  0  0  0  0  0  0  0  0  0  0
  -15.4412   11.8648   -8.1447 C   0  0  0  0  0  0  0  0  0  0  0  0
  -14.4333   12.6871   -7.4487 N   0  0  0  0  0  0  0  0  0  0  0  0
  -13.9299   12.0699   -6.2094 C   0  0  0  0  0  0  0  0  0  0  0  0
  -13.3373   13.1499   -8.3059 C   0  0  0  0  0  0  0  0  0  0  0  0
  -16.6722   11.7236   -7.2459 C   0  0  0  0  0  0  0  0  0  0  0  0
  -15.8345   12.5143   -9.4713 C   0  0  0  0  0  0  0  0  0  0  0  0
  -14.6038    7.3056   -8.7927 O   0  0  0  0  0  0  0  0  0  0  0  0
  -12.0085    6.7590   -9.0957 C   0  0  0  0  0  0  0  0  0  0  0  0
  -11.0764    6.6030   -7.9479 C   0  0  0  0  0  0  0  0  0  0  0  0
   -9.2548    8.1828   -5.8055 O   0  0  0  0  0  0  0  0  0  0  0  0
   -8.0123    5.4069   -7.8145 C   0  0  0  0  0  0  0  0  0  0  0  0
   -5.4957    6.1804   -5.9443 O   0  0  0  0  0  0  0  0  0  0  0  0
   -5.5424    9.8631   -3.9182 C   0  0  0  0  0  0  0  0  0  0  0  0
   -5.6334   10.7673   -5.1184 C   0  0  0  0  0  0  0  0  0  0  0  0
   -5.0551   10.2202   -6.4044 C   0  0  0  0  0  0  0  0  0  0  0  0
   -5.3088   11.1169   -7.5281 N   0  0  0  0  0  0  0  0  0  0  0  0
   -6.0701   12.3861   -7.2029 C   0  0  0  0  0  0  0  0  0  0  0  0
   -7.2169   12.1059   -6.3394 C   0  0  0  0  0  0  0  0  0  0  0  0
   -6.9975   11.1259   -5.3246 O   0  0  0  0  0  0  0  0  0  0  0  0
   -5.0514    7.6809   -1.8834 O   0  0  0  0  0  0  0  0  0  0  0  0
   -2.2158    7.7924   -1.7123 C   0  0  0  0  0  0  0  0  0  0  0  0
   -1.4223    9.0888   -1.3938 C   0  0  0  0  0  0  0  0  0  0  0  0
   -0.6800    9.5789   -2.6149 C   0  0  0  0  0  0  0  0  0  0  0  0
   -0.6477    9.1433   -5.8433 O   0  0  0  0  0  0  0  0  0  0  0  0
   -2.0456   12.1012   -8.9976 C   0  0  0  0  0  0  0  0  0  0  0  0
   -1.9609   11.2589  -10.0951 C   0  0  0  0  0  0  0  0  0  0  0  0
   -3.0003   10.3201  -10.3278 C   0  0  0  0  0  0  0  0  0  0  0  0
   -4.0711   10.2831   -9.4384 C   0  0  0  0  0  0  0  0  0  0  0  0
   -4.1530   11.1773   -8.3586 C   0  0  0  0  0  0  0  0  0  0  0  0
   -3.0969   12.0747   -8.1464 C   0  0  0  0  0  0  0  0  0  0  0  0
   -9.2133    7.5590   -9.1498 F   0  0  0  0  0  0  0  0  0  0  0  0
  1  2  1  0  0  0  0
  2  3  1  0  0  0  0
  2  5  1  0  0  0  0
  3  4  1  0  0  0  0
  5  6  4  0  0  0  0
  5 10  4  0  0  0  0
  6  7  4  0  0  0  0
  7  8  4  0  0  0  0
  8  9  4  0  0  0  0
  9 10  4  0  0  0  0
 10 11  1  0  0  0  0
 11 12  4  0  0  0  0
 11 15  4  0  0  0  0
 12 13  1  0  0  0  0
 12 68  4  0  0  0  0
 13 14  1  0  0  0  0
 15 16  1  0  0  0  0
 15 67  4  0  0  0  0
 16 17  1  0  0  0  0
 17 18  1  0  0  0  0
 17 19  1  0  0  0  0
 17 20  1  0  0  0  0
 20 21  1  0  0  0  0
 21 22  1  0  0  0  0
 22 23  1  0  0  0  0
 22 66  2  0  0  0  0
 23 24  1  0  0  0  0
 23 65  1  0  0  0  0
 24 25  1  0  0  0  0
 25 26  1  0  0  0  0
 25 63  1  0  0  0  0
 26 27  1  0  0  0  0
 26 62  2  0  0  0  0
 27 28  1  0  0  0  0
 27 55  1  0  0  0  0
 28 29  1  0  0  0  0
 29 30  1  0  0  0  0
 29 54  2  0  0  0  0
 30 31  1  0  0  0  0
 30 34  1  0  0  0  0
 31 32  1  0  0  0  0
 31 33  1  0  0  0  0
 34 35  1  0  0  0  0
 34 53  1  0  0  0  0
 35 36  1  0  0  0  0
 35 52  2  0  0  0  0
 36 37  1  0  0  0  0
 36 51  1  0  0  0  0
 36 73  1  0  0  0  0
 37 38  1  0  0  0  0
 38 39  1  0  0  0  0
 39 40  1  0  0  0  0
 39 50  1  0  0  0  0
 40 41  1  0  0  0  0
 40 49  2  0  0  0  0
 41 42  1  0  0  0  0
 42 43  1  0  0  0  0
 43 44  1  0  0  0  0
 43 47  1  0  0  0  0
 43 48  1  0  0  0  0
 44 45  1  0  0  0  0
 44 46  1  0  0  0  0
 50 51  1  0  0  0  0
 55 56  1  0  0  0  0
 56 57  1  0  0  0  0
 56 61  1  0  0  0  0
 57 58  1  0  0  0  0
 58 59  1  0  0  0  0
 58 71  1  0  0  0  0
 59 60  1  0  0  0  0
 60 61  1  0  0  0  0
 63 64  1  0  0  0  0
 64 65  1  0  0  0  0
 67 68  4  0  0  0  0
 67 72  4  0  0  0  0
 68 69  4  0  0  0  0
 69 70  4  0  0  0  0
 70 71  4  0  0  0  0
 71 72  4  0  0  0  0
M  END
$$$$
