mol_ETKDG0_172
  PyMOL3.1          3D                             0

 73 79  0  0  0  0  0  0  0  0999 V2000
   -0.0019   15.0290  -13.7220 C   0  0  0  0  0  0  0  0  0  0  0  0
   -0.2583   14.3521  -12.3893 C   0  0  0  0  0  0  0  0  0  0  0  0
   -0.9512   15.2061  -11.5378 O   0  0  0  0  0  0  0  0  0  0  0  0
   -2.3816   15.1776  -11.5941 C   0  0  0  0  0  0  0  0  0  0  0  0
    1.0066   13.9443  -11.6996 C   0  0  0  0  0  0  0  0  0  0  0  0
    2.1610   14.4437  -12.1296 N   0  0  0  0  0  0  0  0  0  0  0  0
    3.3208   14.0995  -11.5341 C   0  0  0  0  0  0  0  0  0  0  0  0
    3.3486   13.1942  -10.4815 C   0  0  0  0  0  0  0  0  0  0  0  0
    2.1730   12.6688  -10.0517 C   0  0  0  0  0  0  0  0  0  0  0  0
    0.9985   13.0469  -10.6499 C   0  0  0  0  0  0  0  0  0  0  0  0
   -0.2455   12.5074  -10.1707 C   0  0  0  0  0  0  0  0  0  0  0  0
   -0.9509   11.5393  -10.8132 N   0  0  0  0  0  0  0  0  0  0  0  0
   -0.5677   10.8124  -12.0439 C   0  0  0  0  0  0  0  0  0  0  0  0
    0.0693    9.4646  -11.6804 C   0  0  0  0  0  0  0  0  0  0  0  0
   -0.9540   12.9276   -9.0400 C   0  0  0  0  0  0  0  0  0  0  0  0
   -0.6254   13.9677   -8.0081 C   0  0  0  0  0  0  0  0  0  0  0  0
    0.0468   13.4450   -6.7014 C   0  0  0  0  0  0  0  0  0  0  0  0
   -0.6201   14.1330   -5.5081 C   0  0  0  0  0  0  0  0  0  0  0  0
    1.5485   13.8069   -6.6965 C   0  0  0  0  0  0  0  0  0  0  0  0
    0.0058   12.0099   -6.5140 C   0  0  0  0  0  0  0  0  0  0  0  0
   -0.6471   11.4798   -5.3180 O   0  0  0  0  0  0  0  0  0  0  0  0
   -0.9393   10.1061   -5.1533 C   0  0  0  0  0  0  0  0  0  0  0  0
   -1.6466    9.7913   -3.8696 C   0  0  0  0  0  0  0  0  0  0  0  0
   -2.3676    8.5314   -4.0451 N   0  0  0  0  0  0  0  0  0  0  0  0
   -3.0294    8.1034   -2.9168 N   0  0  0  0  0  0  0  0  0  0  0  0
   -4.3975    8.0229   -2.8891 C   0  0  0  0  0  0  0  0  0  0  0  0
   -5.1197    8.3888   -4.1550 C   0  0  0  0  0  0  0  0  0  0  0  0
   -6.2954    7.5724   -4.3863 N   0  0  0  0  0  0  0  0  0  0  0  0
   -6.3282    6.6007   -5.2980 C   0  0  0  0  0  0  0  0  0  0  0  0
   -7.6949    6.0267   -5.5077 C   0  0  0  0  0  0  0  0  0  0  0  0
   -7.8059    4.5096   -5.1607 C   0  0  0  0  0  0  0  0  0  0  0  0
   -9.2014    3.9928   -5.4964 C   0  0  0  0  0  0  0  0  0  0  0  0
   -7.5244    4.2947   -3.6609 C   0  0  0  0  0  0  0  0  0  0  0  0
   -8.0633    6.2829   -6.8778 N   0  0  0  0  0  0  0  0  0  0  0  0
   -9.0206    7.2136   -7.1108 C   0  0  0  0  0  0  0  0  0  0  0  0
   -9.5654    7.4026   -8.5022 C   0  0  0  0  0  0  0  0  0  0  0  0
  -10.9053    8.1344   -8.4479 C   0  0  0  0  0  0  0  0  0  0  0  0
  -11.5732    8.1123   -9.7842 C   0  0  0  0  0  0  0  0  0  0  0  0
  -11.6022    6.7298  -10.2562 N   0  0  0  0  0  0  0  0  0  0  0  0
  -12.6954    5.9309  -10.3039 C   0  0  0  0  0  0  0  0  0  0  0  0
  -13.8315    6.3829   -9.6876 C   0  0  0  0  0  0  0  0  0  0  0  0
  -14.7900    6.7106   -9.1876 C   0  0  0  0  0  0  0  0  0  0  0  0
  -15.9409    7.2029   -8.4512 C   0  0  0  0  0  0  0  0  0  0  0  0
  -15.4779    7.9162   -7.2382 N   0  0  0  0  0  0  0  0  0  0  0  0
  -14.6867    7.0723   -6.3134 C   0  0  0  0  0  0  0  0  0  0  0  0
  -14.7979    9.2059   -7.5087 C   0  0  0  0  0  0  0  0  0  0  0  0
  -16.8068    6.0128   -8.0270 C   0  0  0  0  0  0  0  0  0  0  0  0
  -16.7222    8.1682   -9.3514 C   0  0  0  0  0  0  0  0  0  0  0  0
  -12.6652    4.8173  -10.8303 O   0  0  0  0  0  0  0  0  0  0  0  0
  -10.3616    6.0984  -10.4565 C   0  0  0  0  0  0  0  0  0  0  0  0
   -9.8259    6.0240   -9.0659 C   0  0  0  0  0  0  0  0  0  0  0  0
   -9.4681    7.9099   -6.1817 O   0  0  0  0  0  0  0  0  0  0  0  0
   -7.3157    5.5329   -7.9207 C   0  0  0  0  0  0  0  0  0  0  0  0
   -5.3515    6.2631   -5.9465 O   0  0  0  0  0  0  0  0  0  0  0  0
   -5.5808    9.8793   -4.0163 C   0  0  0  0  0  0  0  0  0  0  0  0
   -6.0689   10.4295   -5.3406 C   0  0  0  0  0  0  0  0  0  0  0  0
   -4.8705   10.6583   -6.2205 C   0  0  0  0  0  0  0  0  0  0  0  0
   -5.2900   11.3011   -7.4799 N   0  0  0  0  0  0  0  0  0  0  0  0
   -6.0698   12.5878   -7.1887 C   0  0  0  0  0  0  0  0  0  0  0  0
   -7.2552   12.2699   -6.3232 C   0  0  0  0  0  0  0  0  0  0  0  0
   -6.7899   11.6470   -5.1067 O   0  0  0  0  0  0  0  0  0  0  0  0
   -5.0246    7.7496   -1.8884 O   0  0  0  0  0  0  0  0  0  0  0  0
   -2.1745    7.8633   -1.7443 C   0  0  0  0  0  0  0  0  0  0  0  0
   -1.3957    9.1599   -1.4516 C   0  0  0  0  0  0  0  0  0  0  0  0
   -0.6600    9.6453   -2.6960 C   0  0  0  0  0  0  0  0  0  0  0  0
   -0.6952    9.1628   -5.9437 O   0  0  0  0  0  0  0  0  0  0  0  0
   -2.0944   12.1577   -9.0370 C   0  0  0  0  0  0  0  0  0  0  0  0
   -2.0657   11.3005  -10.1330 C   0  0  0  0  0  0  0  0  0  0  0  0
   -3.1414   10.4015  -10.3497 C   0  0  0  0  0  0  0  0  0  0  0  0
   -4.1953   10.4112   -9.4377 C   0  0  0  0  0  0  0  0  0  0  0  0
   -4.2054   11.3100   -8.3565 C   0  0  0  0  0  0  0  0  0  0  0  0
   -3.1207   12.1669   -8.1604 C   0  0  0  0  0  0  0  0  0  0  0  0
   -8.6426    8.1030   -9.2760 F   0  0  0  0  0  0  0  0  0  0  0  0
  1  2  1  0  0  0  0
  2  3  1  0  0  0  0
  2  5  1  0  0  0  0
  3  4  1  0  0  0  0
  5  6  4  0  0  0  0
  5 10  4  0  0  0  0
  6  7  4  0  0  0  0
  7  8  4  0  0  0  0
  8  9  4  0  0  0  0
  9 10  4  0  0  0  0
 10 11  1  0  0  0  0
 11 12  4  0  0  0  0
 11 15  4  0  0  0  0
 12 13  1  0  0  0  0
 12 68  4  0  0  0  0
 13 14  1  0  0  0  0
 15 16  1  0  0  0  0
 15 67  4  0  0  0  0
 16 17  1  0  0  0  0
 17 18  1  0  0  0  0
 17 19  1  0  0  0  0
 17 20  1  0  0  0  0
 20 21  1  0  0  0  0
 21 22  1  0  0  0  0
 22 23  1  0  0  0  0
 22 66  2  0  0  0  0
 23 24  1  0  0  0  0
 23 65  1  0  0  0  0
 24 25  1  0  0  0  0
 25 26  1  0  0  0  0
 25 63  1  0  0  0  0
 26 27  1  0  0  0  0
 26 62  2  0  0  0  0
 27 28  1  0  0  0  0
 27 55  1  0  0  0  0
 28 29  1  0  0  0  0
 29 30  1  0  0  0  0
 29 54  2  0  0  0  0
 30 31  1  0  0  0  0
 30 34  1  0  0  0  0
 31 32  1  0  0  0  0
 31 33  1  0  0  0  0
 34 35  1  0  0  0  0
 34 53  1  0  0  0  0
 35 36  1  0  0  0  0
 35 52  2  0  0  0  0
 36 37  1  0  0  0  0
 36 51  1  0  0  0  0
 36 73  1  0  0  0  0
 37 38  1  0  0  0  0
 38 39  1  0  0  0  0
 39 40  1  0  0  0  0
 39 50  1  0  0  0  0
 40 41  1  0  0  0  0
 40 49  2  0  0  0  0
 41 42  1  0  0  0  0
 42 43  1  0  0  0  0
 43 44  1  0  0  0  0
 43 47  1  0  0  0  0
 43 48  1  0  0  0  0
 44 45  1  0  0  0  0
 44 46  1  0  0  0  0
 50 51  1  0  0  0  0
 55 56  1  0  0  0  0
 56 57  1  0  0  0  0
 56 61  1  0  0  0  0
 57 58  1  0  0  0  0
 58 59  1  0  0  0  0
 58 71  1  0  0  0  0
 59 60  1  0  0  0  0
 60 61  1  0  0  0  0
 63 64  1  0  0  0  0
 64 65  1  0  0  0  0
 67 68  4  0  0  0  0
 67 72  4  0  0  0  0
 68 69  4  0  0  0  0
 69 70  4  0  0  0  0
 70 71  4  0  0  0  0
 71 72  4  0  0  0  0
M  END
$$$$
