mol_ETKDG0_174
  PyMOL3.1          3D                             0

 73 79  0  0  0  0  0  0  0  0999 V2000
   -0.3573   16.1867  -11.3514 C   0  0  0  0  0  0  0  0  0  0  0  0
   -0.2026   14.7289  -11.7325 C   0  0  0  0  0  0  0  0  0  0  0  0
   -0.2855   14.4808  -13.1070 O   0  0  0  0  0  0  0  0  0  0  0  0
   -1.5355   14.0297  -13.6055 C   0  0  0  0  0  0  0  0  0  0  0  0
    1.0806   14.1735  -11.2561 C   0  0  0  0  0  0  0  0  0  0  0  0
    2.1992   14.7635  -11.6442 N   0  0  0  0  0  0  0  0  0  0  0  0
    3.3913   14.2701  -11.2588 C   0  0  0  0  0  0  0  0  0  0  0  0
    3.4743   13.1480  -10.4321 C   0  0  0  0  0  0  0  0  0  0  0  0
    2.3224   12.5498  -10.0339 C   0  0  0  0  0  0  0  0  0  0  0  0
    1.1242   13.0575  -10.4541 C   0  0  0  0  0  0  0  0  0  0  0  0
   -0.0911   12.4378  -10.0287 C   0  0  0  0  0  0  0  0  0  0  0  0
   -0.7164   11.4370  -10.6982 N   0  0  0  0  0  0  0  0  0  0  0  0
   -0.2647   10.7544  -11.9187 C   0  0  0  0  0  0  0  0  0  0  0  0
    0.3830    9.4172  -11.5548 C   0  0  0  0  0  0  0  0  0  0  0  0
   -0.8562   12.8110   -8.9290 C   0  0  0  0  0  0  0  0  0  0  0  0
   -0.6192   13.8485   -7.8743 C   0  0  0  0  0  0  0  0  0  0  0  0
    0.0659   13.3466   -6.5733 C   0  0  0  0  0  0  0  0  0  0  0  0
   -0.5635   14.0596   -5.3846 C   0  0  0  0  0  0  0  0  0  0  0  0
    1.5686   13.6893   -6.6038 C   0  0  0  0  0  0  0  0  0  0  0  0
    0.0255   11.9210   -6.3655 C   0  0  0  0  0  0  0  0  0  0  0  0
   -0.6581   11.3850   -5.1999 O   0  0  0  0  0  0  0  0  0  0  0  0
   -0.9603   10.0201   -5.0567 C   0  0  0  0  0  0  0  0  0  0  0  0
   -1.6794    9.7061   -3.7929 C   0  0  0  0  0  0  0  0  0  0  0  0
   -2.3966    8.4543   -3.9746 N   0  0  0  0  0  0  0  0  0  0  0  0
   -3.0716    8.0331   -2.8577 N   0  0  0  0  0  0  0  0  0  0  0  0
   -4.4307    7.9463   -2.8462 C   0  0  0  0  0  0  0  0  0  0  0  0
   -5.1433    8.2564   -4.1279 C   0  0  0  0  0  0  0  0  0  0  0  0
   -6.3248    7.4520   -4.3286 N   0  0  0  0  0  0  0  0  0  0  0  0
   -6.4095    6.4886   -5.2467 C   0  0  0  0  0  0  0  0  0  0  0  0
   -7.7790    5.9137   -5.3891 C   0  0  0  0  0  0  0  0  0  0  0  0
   -7.8806    4.4086   -5.0155 C   0  0  0  0  0  0  0  0  0  0  0  0
   -9.3004    3.9089   -5.2369 C   0  0  0  0  0  0  0  0  0  0  0  0
   -7.4934    4.2094   -3.5442 C   0  0  0  0  0  0  0  0  0  0  0  0
   -8.2436    6.1433   -6.7284 N   0  0  0  0  0  0  0  0  0  0  0  0
   -9.1364    7.1440   -6.9238 C   0  0  0  0  0  0  0  0  0  0  0  0
   -9.8380    7.2299   -8.2404 C   0  0  0  0  0  0  0  0  0  0  0  0
  -10.6437    8.4945   -8.4235 C   0  0  0  0  0  0  0  0  0  0  0  0
  -11.3368    8.4125   -9.7291 C   0  0  0  0  0  0  0  0  0  0  0  0
  -12.1295    7.1773   -9.7920 N   0  0  0  0  0  0  0  0  0  0  0  0
  -13.4441    7.1441  -10.0414 C   0  0  0  0  0  0  0  0  0  0  0  0
  -14.0467    8.3261  -10.3814 C   0  0  0  0  0  0  0  0  0  0  0  0
  -14.6335    9.2349  -10.7002 C   0  0  0  0  0  0  0  0  0  0  0  0
  -15.2273   10.4836  -11.0334 C   0  0  0  0  0  0  0  0  0  0  0  0
  -15.8886   11.0574   -9.8732 N   0  0  0  0  0  0  0  0  0  0  0  0
  -15.5392   10.6067   -8.5616 C   0  0  0  0  0  0  0  0  0  0  0  0
  -16.4915   12.3336   -9.9786 C   0  0  0  0  0  0  0  0  0  0  0  0
  -14.1162   11.4596  -11.5226 C   0  0  0  0  0  0  0  0  0  0  0  0
  -16.2428   10.2283  -12.1358 C   0  0  0  0  0  0  0  0  0  0  0  0
  -14.0795    6.1069   -9.9756 O   0  0  0  0  0  0  0  0  0  0  0  0
  -11.4636    5.9287   -9.5607 C   0  0  0  0  0  0  0  0  0  0  0  0
  -10.7833    6.0342   -8.2652 C   0  0  0  0  0  0  0  0  0  0  0  0
   -9.4225    7.9336   -6.0079 O   0  0  0  0  0  0  0  0  0  0  0  0
   -7.6989    5.2673   -7.7970 C   0  0  0  0  0  0  0  0  0  0  0  0
   -5.4617    6.1329   -5.9321 O   0  0  0  0  0  0  0  0  0  0  0  0
   -5.5806    9.7476   -4.0588 C   0  0  0  0  0  0  0  0  0  0  0  0
   -6.0159   10.2361   -5.4133 C   0  0  0  0  0  0  0  0  0  0  0  0
   -4.7895   10.4627   -6.2430 C   0  0  0  0  0  0  0  0  0  0  0  0
   -5.1634   11.0377   -7.5362 N   0  0  0  0  0  0  0  0  0  0  0  0
   -6.0061   12.3039   -7.3272 C   0  0  0  0  0  0  0  0  0  0  0  0
   -7.2017   11.9901   -6.5106 C   0  0  0  0  0  0  0  0  0  0  0  0
   -6.7755   11.4340   -5.2578 O   0  0  0  0  0  0  0  0  0  0  0  0
   -5.0651    7.7019   -1.8429 O   0  0  0  0  0  0  0  0  0  0  0  0
   -2.2336    7.8088   -1.6759 C   0  0  0  0  0  0  0  0  0  0  0  0
   -1.4687    9.1035   -1.3798 C   0  0  0  0  0  0  0  0  0  0  0  0
   -0.7156    9.5728   -2.6096 C   0  0  0  0  0  0  0  0  0  0  0  0
   -0.7139    9.0732   -5.8506 O   0  0  0  0  0  0  0  0  0  0  0  0
   -1.9506   11.9911   -8.9717 C   0  0  0  0  0  0  0  0  0  0  0  0
   -1.8384   11.1403  -10.0624 C   0  0  0  0  0  0  0  0  0  0  0  0
   -2.8604   10.1937  -10.3108 C   0  0  0  0  0  0  0  0  0  0  0  0
   -3.9452   10.1632   -9.4393 C   0  0  0  0  0  0  0  0  0  0  0  0
   -4.0425   11.0706   -8.3703 C   0  0  0  0  0  0  0  0  0  0  0  0
   -2.9978   11.9668   -8.1383 C   0  0  0  0  0  0  0  0  0  0  0  0
   -8.9286    7.1928   -9.2845 F   0  0  0  0  0  0  0  0  0  0  0  0
  1  2  1  0  0  0  0
  2  3  1  0  0  0  0
  2  5  1  0  0  0  0
  3  4  1  0  0  0  0
  5  6  4  0  0  0  0
  5 10  4  0  0  0  0
  6  7  4  0  0  0  0
  7  8  4  0  0  0  0
  8  9  4  0  0  0  0
  9 10  4  0  0  0  0
 10 11  1  0  0  0  0
 11 12  4  0  0  0  0
 11 15  4  0  0  0  0
 12 13  1  0  0  0  0
 12 68  4  0  0  0  0
 13 14  1  0  0  0  0
 15 16  1  0  0  0  0
 15 67  4  0  0  0  0
 16 17  1  0  0  0  0
 17 18  1  0  0  0  0
 17 19  1  0  0  0  0
 17 20  1  0  0  0  0
 20 21  1  0  0  0  0
 21 22  1  0  0  0  0
 22 23  1  0  0  0  0
 22 66  2  0  0  0  0
 23 24  1  0  0  0  0
 23 65  1  0  0  0  0
 24 25  1  0  0  0  0
 25 26  1  0  0  0  0
 25 63  1  0  0  0  0
 26 27  1  0  0  0  0
 26 62  2  0  0  0  0
 27 28  1  0  0  0  0
 27 55  1  0  0  0  0
 28 29  1  0  0  0  0
 29 30  1  0  0  0  0
 29 54  2  0  0  0  0
 30 31  1  0  0  0  0
 30 34  1  0  0  0  0
 31 32  1  0  0  0  0
 31 33  1  0  0  0  0
 34 35  1  0  0  0  0
 34 53  1  0  0  0  0
 35 36  1  0  0  0  0
 35 52  2  0  0  0  0
 36 37  1  0  0  0  0
 36 51  1  0  0  0  0
 36 73  1  0  0  0  0
 37 38  1  0  0  0  0
 38 39  1  0  0  0  0
 39 40  1  0  0  0  0
 39 50  1  0  0  0  0
 40 41  1  0  0  0  0
 40 49  2  0  0  0  0
 41 42  1  0  0  0  0
 42 43  1  0  0  0  0
 43 44  1  0  0  0  0
 43 47  1  0  0  0  0
 43 48  1  0  0  0  0
 44 45  1  0  0  0  0
 44 46  1  0  0  0  0
 50 51  1  0  0  0  0
 55 56  1  0  0  0  0
 56 57  1  0  0  0  0
 56 61  1  0  0  0  0
 57 58  1  0  0  0  0
 58 59  1  0  0  0  0
 58 71  1  0  0  0  0
 59 60  1  0  0  0  0
 60 61  1  0  0  0  0
 63 64  1  0  0  0  0
 64 65  1  0  0  0  0
 67 68  4  0  0  0  0
 67 72  4  0  0  0  0
 68 69  4  0  0  0  0
 69 70  4  0  0  0  0
 70 71  4  0  0  0  0
 71 72  4  0  0  0  0
M  END
$$$$
