mol_ETKDG5_140
  PyMOL3.1          3D                             0

 73 79  0  0  0  0  0  0  0  0999 V2000
   -0.4612   14.4354  -14.0764 C   0  0  0  0  0  0  0  0  0  0  0  0
   -0.6168   13.8419  -12.6979 C   0  0  0  0  0  0  0  0  0  0  0  0
   -1.3681   14.6752  -11.8866 O   0  0  0  0  0  0  0  0  0  0  0  0
   -2.7899   14.5491  -11.9661 C   0  0  0  0  0  0  0  0  0  0  0  0
    0.6886   13.5953  -12.0267 C   0  0  0  0  0  0  0  0  0  0  0  0
    1.7761   14.1593  -12.5226 N   0  0  0  0  0  0  0  0  0  0  0  0
    2.9746   13.9360  -11.9583 C   0  0  0  0  0  0  0  0  0  0  0  0
    3.1110   13.0990  -10.8595 C   0  0  0  0  0  0  0  0  0  0  0  0
    1.9945   12.5173  -10.3532 C   0  0  0  0  0  0  0  0  0  0  0  0
    0.7833   12.7688  -10.9260 C   0  0  0  0  0  0  0  0  0  0  0  0
   -0.4124   12.1831  -10.3642 C   0  0  0  0  0  0  0  0  0  0  0  0
   -1.0945   11.1570  -10.9376 N   0  0  0  0  0  0  0  0  0  0  0  0
   -0.7298   10.4024  -12.1450 C   0  0  0  0  0  0  0  0  0  0  0  0
    0.0119    9.1257  -11.7458 C   0  0  0  0  0  0  0  0  0  0  0  0
   -1.0898   12.6263   -9.2283 C   0  0  0  0  0  0  0  0  0  0  0  0
   -0.7652   13.7060   -8.2510 C   0  0  0  0  0  0  0  0  0  0  0  0
   -0.0743   13.2591   -6.9089 C   0  0  0  0  0  0  0  0  0  0  0  0
   -0.7400   14.0183   -5.7616 C   0  0  0  0  0  0  0  0  0  0  0  0
    1.4231   13.6533   -6.9408 C   0  0  0  0  0  0  0  0  0  0  0  0
   -0.0792   11.8578   -6.6303 C   0  0  0  0  0  0  0  0  0  0  0  0
   -0.7296   11.3670   -5.3944 O   0  0  0  0  0  0  0  0  0  0  0  0
   -1.0036    9.9997   -5.1667 C   0  0  0  0  0  0  0  0  0  0  0  0
   -1.7056    9.7124   -3.8730 C   0  0  0  0  0  0  0  0  0  0  0  0
   -2.4249    8.4585   -4.0340 N   0  0  0  0  0  0  0  0  0  0  0  0
   -3.0813    8.0260   -2.8949 N   0  0  0  0  0  0  0  0  0  0  0  0
   -4.4420    7.9250   -2.8640 C   0  0  0  0  0  0  0  0  0  0  0  0
   -5.1742    8.2421   -4.1323 C   0  0  0  0  0  0  0  0  0  0  0  0
   -6.3602    7.4360   -4.3226 N   0  0  0  0  0  0  0  0  0  0  0  0
   -6.4678    6.4726   -5.2476 C   0  0  0  0  0  0  0  0  0  0  0  0
   -7.8512    5.9100   -5.3735 C   0  0  0  0  0  0  0  0  0  0  0  0
   -7.9604    4.3984   -5.0250 C   0  0  0  0  0  0  0  0  0  0  0  0
   -9.3911    3.9182   -5.2318 C   0  0  0  0  0  0  0  0  0  0  0  0
   -7.5503    4.1767   -3.5625 C   0  0  0  0  0  0  0  0  0  0  0  0
   -8.3444    6.1886   -6.7032 N   0  0  0  0  0  0  0  0  0  0  0  0
   -9.1591    7.2591   -6.8662 C   0  0  0  0  0  0  0  0  0  0  0  0
   -9.8976    7.4535   -8.1622 C   0  0  0  0  0  0  0  0  0  0  0  0
  -10.5193    8.8325   -8.2647 C   0  0  0  0  0  0  0  0  0  0  0  0
  -11.2943    8.9082   -9.5142 C   0  0  0  0  0  0  0  0  0  0  0  0
  -12.2654    7.8069   -9.5521 N   0  0  0  0  0  0  0  0  0  0  0  0
  -13.5881    7.9970   -9.6725 C   0  0  0  0  0  0  0  0  0  0  0  0
  -14.0547    9.2999   -9.6912 C   0  0  0  0  0  0  0  0  0  0  0  0
  -14.5748   10.2938   -9.7321 C   0  0  0  0  0  0  0  0  0  0  0  0
  -15.1120   11.6327   -9.7121 C   0  0  0  0  0  0  0  0  0  0  0  0
  -16.1302   11.7065   -8.6356 N   0  0  0  0  0  0  0  0  0  0  0  0
  -15.5409   11.6430   -7.2772 C   0  0  0  0  0  0  0  0  0  0  0  0
  -17.2179   10.6967   -8.8075 C   0  0  0  0  0  0  0  0  0  0  0  0
  -13.9860   12.6568   -9.4512 C   0  0  0  0  0  0  0  0  0  0  0  0
  -15.7241   11.9107  -11.0819 C   0  0  0  0  0  0  0  0  0  0  0  0
  -14.3589    7.0541   -9.7453 O   0  0  0  0  0  0  0  0  0  0  0  0
  -11.7655    6.4540   -9.4236 C   0  0  0  0  0  0  0  0  0  0  0  0
  -10.9962    6.3898   -8.1630 C   0  0  0  0  0  0  0  0  0  0  0  0
   -9.3548    8.0518   -5.9289 O   0  0  0  0  0  0  0  0  0  0  0  0
   -7.9010    5.2769   -7.8004 C   0  0  0  0  0  0  0  0  0  0  0  0
   -5.5351    6.1170   -5.9624 O   0  0  0  0  0  0  0  0  0  0  0  0
   -5.6139    9.7319   -4.0325 C   0  0  0  0  0  0  0  0  0  0  0  0
   -6.1201   10.2419   -5.3581 C   0  0  0  0  0  0  0  0  0  0  0  0
   -4.9213   10.4390   -6.2423 C   0  0  0  0  0  0  0  0  0  0  0  0
   -5.3470   11.0232   -7.5117 N   0  0  0  0  0  0  0  0  0  0  0  0
   -6.1262   12.3152   -7.2669 C   0  0  0  0  0  0  0  0  0  0  0  0
   -7.3005   12.0341   -6.3857 C   0  0  0  0  0  0  0  0  0  0  0  0
   -6.8321   11.4553   -5.1552 O   0  0  0  0  0  0  0  0  0  0  0  0
   -5.0606    7.6785   -1.8556 O   0  0  0  0  0  0  0  0  0  0  0  0
   -2.2265    7.8148   -1.7328 C   0  0  0  0  0  0  0  0  0  0  0  0
   -1.4446    9.1321   -1.4545 C   0  0  0  0  0  0  0  0  0  0  0  0
   -0.7218    9.5903   -2.7084 C   0  0  0  0  0  0  0  0  0  0  0  0
   -0.7479    9.0299   -5.9241 O   0  0  0  0  0  0  0  0  0  0  0  0
   -2.1989   11.8248   -9.1640 C   0  0  0  0  0  0  0  0  0  0  0  0
   -2.1772   10.9234  -10.2169 C   0  0  0  0  0  0  0  0  0  0  0  0
   -3.2407    9.9907  -10.3611 C   0  0  0  0  0  0  0  0  0  0  0  0
   -4.2649   10.0276   -9.4363 C   0  0  0  0  0  0  0  0  0  0  0  0
   -4.2748   10.9876   -8.4042 C   0  0  0  0  0  0  0  0  0  0  0  0
   -3.1923   11.8614   -8.2739 C   0  0  0  0  0  0  0  0  0  0  0  0
   -9.0419    7.3089   -9.2430 F   0  0  0  0  0  0  0  0  0  0  0  0
  1  2  1  0  0  0  0
  2  3  1  0  0  0  0
  2  5  1  0  0  0  0
  3  4  1  0  0  0  0
  5  6  4  0  0  0  0
  5 10  4  0  0  0  0
  6  7  4  0  0  0  0
  7  8  4  0  0  0  0
  8  9  4  0  0  0  0
  9 10  4  0  0  0  0
 10 11  1  0  0  0  0
 11 12  4  0  0  0  0
 11 15  4  0  0  0  0
 12 13  1  0  0  0  0
 12 68  4  0  0  0  0
 13 14  1  0  0  0  0
 15 16  1  0  0  0  0
 15 67  4  0  0  0  0
 16 17  1  0  0  0  0
 17 18  1  0  0  0  0
 17 19  1  0  0  0  0
 17 20  1  0  0  0  0
 20 21  1  0  0  0  0
 21 22  1  0  0  0  0
 22 23  1  0  0  0  0
 22 66  2  0  0  0  0
 23 24  1  0  0  0  0
 23 65  1  0  0  0  0
 24 25  1  0  0  0  0
 25 26  1  0  0  0  0
 25 63  1  0  0  0  0
 26 27  1  0  0  0  0
 26 62  2  0  0  0  0
 27 28  1  0  0  0  0
 27 55  1  0  0  0  0
 28 29  1  0  0  0  0
 29 30  1  0  0  0  0
 29 54  2  0  0  0  0
 30 31  1  0  0  0  0
 30 34  1  0  0  0  0
 31 32  1  0  0  0  0
 31 33  1  0  0  0  0
 34 35  1  0  0  0  0
 34 53  1  0  0  0  0
 35 36  1  0  0  0  0
 35 52  2  0  0  0  0
 36 37  1  0  0  0  0
 36 51  1  0  0  0  0
 36 73  1  0  0  0  0
 37 38  1  0  0  0  0
 38 39  1  0  0  0  0
 39 40  1  0  0  0  0
 39 50  1  0  0  0  0
 40 41  1  0  0  0  0
 40 49  2  0  0  0  0
 41 42  1  0  0  0  0
 42 43  1  0  0  0  0
 43 44  1  0  0  0  0
 43 47  1  0  0  0  0
 43 48  1  0  0  0  0
 44 45  1  0  0  0  0
 44 46  1  0  0  0  0
 50 51  1  0  0  0  0
 55 56  1  0  0  0  0
 56 57  1  0  0  0  0
 56 61  1  0  0  0  0
 57 58  1  0  0  0  0
 58 59  1  0  0  0  0
 58 71  1  0  0  0  0
 59 60  1  0  0  0  0
 60 61  1  0  0  0  0
 63 64  1  0  0  0  0
 64 65  1  0  0  0  0
 67 68  4  0  0  0  0
 67 72  4  0  0  0  0
 68 69  4  0  0  0  0
 69 70  4  0  0  0  0
 70 71  4  0  0  0  0
 71 72  4  0  0  0  0
M  END
$$$$
