mol_ETKDG1_29
  PyMOL3.1          3D                             0

 73 79  0  0  0  0  0  0  0  0999 V2000
    0.0320   16.6352  -11.4108 C   0  0  0  0  0  0  0  0  0  0  0  0
   -0.0629   15.1310  -11.5641 C   0  0  0  0  0  0  0  0  0  0  0  0
   -0.4162   14.7041  -12.8481 O   0  0  0  0  0  0  0  0  0  0  0  0
   -1.8047   14.6453  -13.1472 C   0  0  0  0  0  0  0  0  0  0  0  0
    1.2088   14.4454  -11.2196 C   0  0  0  0  0  0  0  0  0  0  0  0
    2.3558   15.0337  -11.5265 N   0  0  0  0  0  0  0  0  0  0  0  0
    3.5272   14.4313  -11.2744 C   0  0  0  0  0  0  0  0  0  0  0  0
    3.5709   13.1740  -10.6589 C   0  0  0  0  0  0  0  0  0  0  0  0
    2.3985   12.5718  -10.3365 C   0  0  0  0  0  0  0  0  0  0  0  0
    1.2157   13.1957  -10.6265 C   0  0  0  0  0  0  0  0  0  0  0  0
   -0.0228   12.5586  -10.2640 C   0  0  0  0  0  0  0  0  0  0  0  0
   -0.6503   11.5974  -11.0021 N   0  0  0  0  0  0  0  0  0  0  0  0
   -0.2021   11.0110  -12.2698 C   0  0  0  0  0  0  0  0  0  0  0  0
    0.3030    9.5823  -12.0485 C   0  0  0  0  0  0  0  0  0  0  0  0
   -0.8007   12.8653   -9.1472 C   0  0  0  0  0  0  0  0  0  0  0  0
   -0.5809   13.8617   -8.0542 C   0  0  0  0  0  0  0  0  0  0  0  0
    0.1463   13.3365   -6.7848 C   0  0  0  0  0  0  0  0  0  0  0  0
   -0.4244   14.0690   -5.5611 C   0  0  0  0  0  0  0  0  0  0  0  0
    1.6653   13.6095   -6.8509 C   0  0  0  0  0  0  0  0  0  0  0  0
    0.0415   11.8995   -6.5717 C   0  0  0  0  0  0  0  0  0  0  0  0
   -0.6189   11.3943   -5.3696 O   0  0  0  0  0  0  0  0  0  0  0  0
   -0.9309   10.0332   -5.1932 C   0  0  0  0  0  0  0  0  0  0  0  0
   -1.6548    9.7448   -3.9095 C   0  0  0  0  0  0  0  0  0  0  0  0
   -2.3699    8.4809   -4.0689 N   0  0  0  0  0  0  0  0  0  0  0  0
   -3.0563    8.0713   -2.9469 N   0  0  0  0  0  0  0  0  0  0  0  0
   -4.4214    7.9793   -2.9525 C   0  0  0  0  0  0  0  0  0  0  0  0
   -5.1210    8.2522   -4.2632 C   0  0  0  0  0  0  0  0  0  0  0  0
   -6.3108    7.4500   -4.4382 N   0  0  0  0  0  0  0  0  0  0  0  0
   -6.4082    6.4691   -5.3418 C   0  0  0  0  0  0  0  0  0  0  0  0
   -7.7725    5.8697   -5.4729 C   0  0  0  0  0  0  0  0  0  0  0  0
   -7.8431    4.3666   -5.0545 C   0  0  0  0  0  0  0  0  0  0  0  0
   -9.2460    3.8324   -5.2757 C   0  0  0  0  0  0  0  0  0  0  0  0
   -7.4566    4.2130   -3.5774 C   0  0  0  0  0  0  0  0  0  0  0  0
   -8.2332    6.0360   -6.8349 N   0  0  0  0  0  0  0  0  0  0  0  0
   -9.2321    6.9318   -7.0596 C   0  0  0  0  0  0  0  0  0  0  0  0
   -9.9115    6.9634   -8.4139 C   0  0  0  0  0  0  0  0  0  0  0  0
  -11.0487    7.9839   -8.4556 C   0  0  0  0  0  0  0  0  0  0  0  0
  -11.7846    7.8533   -9.7399 C   0  0  0  0  0  0  0  0  0  0  0  0
  -12.2189    6.4557   -9.9233 N   0  0  0  0  0  0  0  0  0  0  0  0
  -13.5036    6.0458   -9.9703 C   0  0  0  0  0  0  0  0  0  0  0  0
  -14.4803    6.9413   -9.5866 C   0  0  0  0  0  0  0  0  0  0  0  0
  -15.3496    7.5950   -9.2695 C   0  0  0  0  0  0  0  0  0  0  0  0
  -16.2950    8.5246   -8.7393 C   0  0  0  0  0  0  0  0  0  0  0  0
  -16.5483    8.2374   -7.3175 N   0  0  0  0  0  0  0  0  0  0  0  0
  -15.3766    7.8151   -6.5473 C   0  0  0  0  0  0  0  0  0  0  0  0
  -17.3560    9.1950   -6.6037 C   0  0  0  0  0  0  0  0  0  0  0  0
  -17.6012    8.3498   -9.5342 C   0  0  0  0  0  0  0  0  0  0  0  0
  -15.7314    9.9610   -8.9113 C   0  0  0  0  0  0  0  0  0  0  0  0
  -13.8045    4.9004  -10.2887 O   0  0  0  0  0  0  0  0  0  0  0  0
  -11.1950    5.4614   -9.9264 C   0  0  0  0  0  0  0  0  0  0  0  0
  -10.5294    5.5768   -8.5951 C   0  0  0  0  0  0  0  0  0  0  0  0
   -9.6231    7.6855   -6.1538 O   0  0  0  0  0  0  0  0  0  0  0  0
   -7.5685    5.2223   -7.8859 C   0  0  0  0  0  0  0  0  0  0  0  0
   -5.4557    6.1201   -6.0328 O   0  0  0  0  0  0  0  0  0  0  0  0
   -5.5464    9.7524   -4.2798 C   0  0  0  0  0  0  0  0  0  0  0  0
   -5.9828   10.1709   -5.6793 C   0  0  0  0  0  0  0  0  0  0  0  0
   -4.7440   10.4196   -6.5154 C   0  0  0  0  0  0  0  0  0  0  0  0
   -5.1284   10.9498   -7.8470 N   0  0  0  0  0  0  0  0  0  0  0  0
   -6.0244   12.1701   -7.6911 C   0  0  0  0  0  0  0  0  0  0  0  0
   -7.2408   11.8093   -6.8746 C   0  0  0  0  0  0  0  0  0  0  0  0
   -6.8110   11.3209   -5.5885 O   0  0  0  0  0  0  0  0  0  0  0  0
   -5.0702    7.7494   -1.9624 O   0  0  0  0  0  0  0  0  0  0  0  0
   -2.2283    7.8577   -1.7670 C   0  0  0  0  0  0  0  0  0  0  0  0
   -1.4511    9.1777   -1.4767 C   0  0  0  0  0  0  0  0  0  0  0  0
   -0.6950    9.6317   -2.7220 C   0  0  0  0  0  0  0  0  0  0  0  0
   -0.6999    9.0694   -5.9707 O   0  0  0  0  0  0  0  0  0  0  0  0
   -1.9006   12.0408   -9.2393 C   0  0  0  0  0  0  0  0  0  0  0  0
   -1.7812   11.2586  -10.3809 C   0  0  0  0  0  0  0  0  0  0  0  0
   -2.8103   10.3238  -10.6812 C   0  0  0  0  0  0  0  0  0  0  0  0
   -3.8983   10.2269   -9.8183 C   0  0  0  0  0  0  0  0  0  0  0  0
   -4.0070   11.0567   -8.6792 C   0  0  0  0  0  0  0  0  0  0  0  0
   -2.9783   11.9559   -8.3995 C   0  0  0  0  0  0  0  0  0  0  0  0
   -8.9813    7.2490   -9.4005 F   0  0  0  0  0  0  0  0  0  0  0  0
  1  2  1  0  0  0  0
  2  3  1  0  0  0  0
  2  5  1  0  0  0  0
  3  4  1  0  0  0  0
  5  6  4  0  0  0  0
  5 10  4  0  0  0  0
  6  7  4  0  0  0  0
  7  8  4  0  0  0  0
  8  9  4  0  0  0  0
  9 10  4  0  0  0  0
 10 11  1  0  0  0  0
 11 12  4  0  0  0  0
 11 15  4  0  0  0  0
 12 13  1  0  0  0  0
 12 68  4  0  0  0  0
 13 14  1  0  0  0  0
 15 16  1  0  0  0  0
 15 67  4  0  0  0  0
 16 17  1  0  0  0  0
 17 18  1  0  0  0  0
 17 19  1  0  0  0  0
 17 20  1  0  0  0  0
 20 21  1  0  0  0  0
 21 22  1  0  0  0  0
 22 23  1  0  0  0  0
 22 66  2  0  0  0  0
 23 24  1  0  0  0  0
 23 65  1  0  0  0  0
 24 25  1  0  0  0  0
 25 26  1  0  0  0  0
 25 63  1  0  0  0  0
 26 27  1  0  0  0  0
 26 62  2  0  0  0  0
 27 28  1  0  0  0  0
 27 55  1  0  0  0  0
 28 29  1  0  0  0  0
 29 30  1  0  0  0  0
 29 54  2  0  0  0  0
 30 31  1  0  0  0  0
 30 34  1  0  0  0  0
 31 32  1  0  0  0  0
 31 33  1  0  0  0  0
 34 35  1  0  0  0  0
 34 53  1  0  0  0  0
 35 36  1  0  0  0  0
 35 52  2  0  0  0  0
 36 37  1  0  0  0  0
 36 51  1  0  0  0  0
 36 73  1  0  0  0  0
 37 38  1  0  0  0  0
 38 39  1  0  0  0  0
 39 40  1  0  0  0  0
 39 50  1  0  0  0  0
 40 41  1  0  0  0  0
 40 49  2  0  0  0  0
 41 42  1  0  0  0  0
 42 43  1  0  0  0  0
 43 44  1  0  0  0  0
 43 47  1  0  0  0  0
 43 48  1  0  0  0  0
 44 45  1  0  0  0  0
 44 46  1  0  0  0  0
 50 51  1  0  0  0  0
 55 56  1  0  0  0  0
 56 57  1  0  0  0  0
 56 61  1  0  0  0  0
 57 58  1  0  0  0  0
 58 59  1  0  0  0  0
 58 71  1  0  0  0  0
 59 60  1  0  0  0  0
 60 61  1  0  0  0  0
 63 64  1  0  0  0  0
 64 65  1  0  0  0  0
 67 68  4  0  0  0  0
 67 72  4  0  0  0  0
 68 69  4  0  0  0  0
 69 70  4  0  0  0  0
 70 71  4  0  0  0  0
 71 72  4  0  0  0  0
M  END
$$$$
