mol_ETKDG2_75
  PyMOL3.1          3D                             0

 73 79  0  0  0  0  0  0  0  0999 V2000
   -0.1924   16.5924  -11.1320 C   0  0  0  0  0  0  0  0  0  0  0  0
   -0.1632   15.1027  -11.3755 C   0  0  0  0  0  0  0  0  0  0  0  0
   -0.3161   14.7391  -12.7309 O   0  0  0  0  0  0  0  0  0  0  0  0
   -1.6414   14.5467  -13.1940 C   0  0  0  0  0  0  0  0  0  0  0  0
    1.0911   14.4903  -10.9178 C   0  0  0  0  0  0  0  0  0  0  0  0
    2.2426   15.0609  -11.2412 N   0  0  0  0  0  0  0  0  0  0  0  0
    3.4027   14.5096  -10.8678 C   0  0  0  0  0  0  0  0  0  0  0  0
    3.4297   13.3371  -10.1177 C   0  0  0  0  0  0  0  0  0  0  0  0
    2.2526   12.7541   -9.7812 C   0  0  0  0  0  0  0  0  0  0  0  0
    1.0849   13.3253  -10.1951 C   0  0  0  0  0  0  0  0  0  0  0  0
   -0.1589   12.7087   -9.8331 C   0  0  0  0  0  0  0  0  0  0  0  0
   -0.7771   11.7453  -10.5667 N   0  0  0  0  0  0  0  0  0  0  0  0
   -0.3079   11.1163  -11.8017 C   0  0  0  0  0  0  0  0  0  0  0  0
    0.2897    9.7431  -11.4769 C   0  0  0  0  0  0  0  0  0  0  0  0
   -0.9523   13.0440   -8.7431 C   0  0  0  0  0  0  0  0  0  0  0  0
   -0.7496   14.0427   -7.6601 C   0  0  0  0  0  0  0  0  0  0  0  0
   -0.0349   13.5027   -6.3887 C   0  0  0  0  0  0  0  0  0  0  0  0
   -0.6845   14.1474   -5.1616 C   0  0  0  0  0  0  0  0  0  0  0  0
    1.4520   13.9103   -6.4172 C   0  0  0  0  0  0  0  0  0  0  0  0
   -0.0332   12.0754   -6.2454 C   0  0  0  0  0  0  0  0  0  0  0  0
   -0.7211   11.4898   -5.1154 O   0  0  0  0  0  0  0  0  0  0  0  0
   -0.9723   10.1097   -5.0106 C   0  0  0  0  0  0  0  0  0  0  0  0
   -1.7020    9.7609   -3.7613 C   0  0  0  0  0  0  0  0  0  0  0  0
   -2.4020    8.5022   -3.9735 N   0  0  0  0  0  0  0  0  0  0  0  0
   -3.0770    8.0641   -2.8624 N   0  0  0  0  0  0  0  0  0  0  0  0
   -4.4404    7.9783   -2.8519 C   0  0  0  0  0  0  0  0  0  0  0  0
   -5.1616    8.3165   -4.1303 C   0  0  0  0  0  0  0  0  0  0  0  0
   -6.3422    7.4980   -4.3344 N   0  0  0  0  0  0  0  0  0  0  0  0
   -6.4239    6.5298   -5.2475 C   0  0  0  0  0  0  0  0  0  0  0  0
   -7.7927    5.9476   -5.4144 C   0  0  0  0  0  0  0  0  0  0  0  0
   -7.8810    4.4367   -5.0531 C   0  0  0  0  0  0  0  0  0  0  0  0
   -9.2918    3.9206   -5.3180 C   0  0  0  0  0  0  0  0  0  0  0  0
   -7.5286    4.2332   -3.5706 C   0  0  0  0  0  0  0  0  0  0  0  0
   -8.2257    6.1884   -6.7700 N   0  0  0  0  0  0  0  0  0  0  0  0
   -9.1059    7.1967   -6.9874 C   0  0  0  0  0  0  0  0  0  0  0  0
   -9.7588    7.3172   -8.3399 C   0  0  0  0  0  0  0  0  0  0  0  0
  -10.6275    8.5492   -8.4953 C   0  0  0  0  0  0  0  0  0  0  0  0
  -11.2567    8.5152   -9.8358 C   0  0  0  0  0  0  0  0  0  0  0  0
  -11.9570    7.2359  -10.0348 N   0  0  0  0  0  0  0  0  0  0  0  0
  -13.2396    7.1189  -10.4045 C   0  0  0  0  0  0  0  0  0  0  0  0
  -13.9624    8.2543  -10.6650 C   0  0  0  0  0  0  0  0  0  0  0  0
  -14.6832    9.0863  -10.9574 C   0  0  0  0  0  0  0  0  0  0  0  0
  -15.4755   10.2284  -11.2395 C   0  0  0  0  0  0  0  0  0  0  0  0
  -16.8996    9.9114  -11.0251 N   0  0  0  0  0  0  0  0  0  0  0  0
  -17.1509    9.1384   -9.7893 C   0  0  0  0  0  0  0  0  0  0  0  0
  -17.5617    9.2807  -12.1795 C   0  0  0  0  0  0  0  0  0  0  0  0
  -15.0649   11.4002  -10.3218 C   0  0  0  0  0  0  0  0  0  0  0  0
  -15.2123   10.6192  -12.6934 C   0  0  0  0  0  0  0  0  0  0  0  0
  -13.7611    6.0248  -10.5129 O   0  0  0  0  0  0  0  0  0  0  0  0
  -11.2286    6.0196   -9.8124 C   0  0  0  0  0  0  0  0  0  0  0  0
  -10.6508    6.0940   -8.4645 C   0  0  0  0  0  0  0  0  0  0  0  0
   -9.4094    7.9790   -6.0820 O   0  0  0  0  0  0  0  0  0  0  0  0
   -7.6493    5.3192   -7.8329 C   0  0  0  0  0  0  0  0  0  0  0  0
   -5.4641    6.1848   -5.9286 O   0  0  0  0  0  0  0  0  0  0  0  0
   -5.6130    9.7922   -4.0225 C   0  0  0  0  0  0  0  0  0  0  0  0
   -6.0936   10.3141   -5.3605 C   0  0  0  0  0  0  0  0  0  0  0  0
   -4.8809   10.5717   -6.2033 C   0  0  0  0  0  0  0  0  0  0  0  0
   -5.2791   11.2032   -7.4687 N   0  0  0  0  0  0  0  0  0  0  0  0
   -6.1178   12.4580   -7.1892 C   0  0  0  0  0  0  0  0  0  0  0  0
   -7.3064   12.1006   -6.3645 C   0  0  0  0  0  0  0  0  0  0  0  0
   -6.8598   11.4959   -5.1410 O   0  0  0  0  0  0  0  0  0  0  0  0
   -5.0723    7.7326   -1.8557 O   0  0  0  0  0  0  0  0  0  0  0  0
   -2.2491    7.8231   -1.6873 C   0  0  0  0  0  0  0  0  0  0  0  0
   -1.4817    9.1297   -1.3641 C   0  0  0  0  0  0  0  0  0  0  0  0
   -0.7356    9.6111   -2.5880 C   0  0  0  0  0  0  0  0  0  0  0  0
   -0.6809    9.1904   -5.8136 O   0  0  0  0  0  0  0  0  0  0  0  0
   -2.0490   12.2288   -8.8394 C   0  0  0  0  0  0  0  0  0  0  0  0
   -1.9190   11.4273   -9.9596 C   0  0  0  0  0  0  0  0  0  0  0  0
   -2.9455   10.4910  -10.2553 C   0  0  0  0  0  0  0  0  0  0  0  0
   -4.0391   10.4185   -9.4057 C   0  0  0  0  0  0  0  0  0  0  0  0
   -4.1557   11.2814   -8.2903 C   0  0  0  0  0  0  0  0  0  0  0  0
   -3.1067   12.1658   -8.0250 C   0  0  0  0  0  0  0  0  0  0  0  0
   -8.7907    7.3627   -9.3271 F   0  0  0  0  0  0  0  0  0  0  0  0
  1  2  1  0  0  0  0
  2  3  1  0  0  0  0
  2  5  1  0  0  0  0
  3  4  1  0  0  0  0
  5  6  4  0  0  0  0
  5 10  4  0  0  0  0
  6  7  4  0  0  0  0
  7  8  4  0  0  0  0
  8  9  4  0  0  0  0
  9 10  4  0  0  0  0
 10 11  1  0  0  0  0
 11 12  4  0  0  0  0
 11 15  4  0  0  0  0
 12 13  1  0  0  0  0
 12 68  4  0  0  0  0
 13 14  1  0  0  0  0
 15 16  1  0  0  0  0
 15 67  4  0  0  0  0
 16 17  1  0  0  0  0
 17 18  1  0  0  0  0
 17 19  1  0  0  0  0
 17 20  1  0  0  0  0
 20 21  1  0  0  0  0
 21 22  1  0  0  0  0
 22 23  1  0  0  0  0
 22 66  2  0  0  0  0
 23 24  1  0  0  0  0
 23 65  1  0  0  0  0
 24 25  1  0  0  0  0
 25 26  1  0  0  0  0
 25 63  1  0  0  0  0
 26 27  1  0  0  0  0
 26 62  2  0  0  0  0
 27 28  1  0  0  0  0
 27 55  1  0  0  0  0
 28 29  1  0  0  0  0
 29 30  1  0  0  0  0
 29 54  2  0  0  0  0
 30 31  1  0  0  0  0
 30 34  1  0  0  0  0
 31 32  1  0  0  0  0
 31 33  1  0  0  0  0
 34 35  1  0  0  0  0
 34 53  1  0  0  0  0
 35 36  1  0  0  0  0
 35 52  2  0  0  0  0
 36 37  1  0  0  0  0
 36 51  1  0  0  0  0
 36 73  1  0  0  0  0
 37 38  1  0  0  0  0
 38 39  1  0  0  0  0
 39 40  1  0  0  0  0
 39 50  1  0  0  0  0
 40 41  1  0  0  0  0
 40 49  2  0  0  0  0
 41 42  1  0  0  0  0
 42 43  1  0  0  0  0
 43 44  1  0  0  0  0
 43 47  1  0  0  0  0
 43 48  1  0  0  0  0
 44 45  1  0  0  0  0
 44 46  1  0  0  0  0
 50 51  1  0  0  0  0
 55 56  1  0  0  0  0
 56 57  1  0  0  0  0
 56 61  1  0  0  0  0
 57 58  1  0  0  0  0
 58 59  1  0  0  0  0
 58 71  1  0  0  0  0
 59 60  1  0  0  0  0
 60 61  1  0  0  0  0
 63 64  1  0  0  0  0
 64 65  1  0  0  0  0
 67 68  4  0  0  0  0
 67 72  4  0  0  0  0
 68 69  4  0  0  0  0
 69 70  4  0  0  0  0
 70 71  4  0  0  0  0
 71 72  4  0  0  0  0
M  END
$$$$
