mol_ETKDG4_115
  PyMOL3.1          3D                             0

 73 79  0  0  0  0  0  0  0  0999 V2000
   -0.3284   16.6641  -11.5121 C   0  0  0  0  0  0  0  0  0  0  0  0
   -0.4884   15.1626  -11.5119 C   0  0  0  0  0  0  0  0  0  0  0  0
   -0.9939   14.6681  -12.7279 O   0  0  0  0  0  0  0  0  0  0  0  0
   -2.4054   14.6041  -12.8655 C   0  0  0  0  0  0  0  0  0  0  0  0
    0.7948   14.4556  -11.2497 C   0  0  0  0  0  0  0  0  0  0  0  0
    1.9240   15.0048  -11.6739 N   0  0  0  0  0  0  0  0  0  0  0  0
    3.1057   14.3739  -11.4724 C   0  0  0  0  0  0  0  0  0  0  0  0
    3.1691   13.1593  -10.8048 C   0  0  0  0  0  0  0  0  0  0  0  0
    2.0036   12.5981  -10.3693 C   0  0  0  0  0  0  0  0  0  0  0  0
    0.8242   13.2367  -10.6072 C   0  0  0  0  0  0  0  0  0  0  0  0
   -0.3964   12.6349  -10.1582 C   0  0  0  0  0  0  0  0  0  0  0  0
   -1.0973   11.7198  -10.8760 N   0  0  0  0  0  0  0  0  0  0  0  0
   -0.7487   11.1383  -12.1832 C   0  0  0  0  0  0  0  0  0  0  0  0
   -0.1727    9.7278  -11.9990 C   0  0  0  0  0  0  0  0  0  0  0  0
   -1.0865   12.9384   -8.9853 C   0  0  0  0  0  0  0  0  0  0  0  0
   -0.7741   13.8953   -7.8740 C   0  0  0  0  0  0  0  0  0  0  0  0
    0.0245   13.3068   -6.6709 C   0  0  0  0  0  0  0  0  0  0  0  0
   -0.4109   14.0227   -5.3892 C   0  0  0  0  0  0  0  0  0  0  0  0
    1.5331   13.5429   -6.8743 C   0  0  0  0  0  0  0  0  0  0  0  0
   -0.1295   11.8873   -6.5127 C   0  0  0  0  0  0  0  0  0  0  0  0
   -0.7848   11.3731   -5.3191 O   0  0  0  0  0  0  0  0  0  0  0  0
   -1.0194   10.0016   -5.1237 C   0  0  0  0  0  0  0  0  0  0  0  0
   -1.7292    9.6919   -3.8483 C   0  0  0  0  0  0  0  0  0  0  0  0
   -2.4289    8.4315   -4.0229 N   0  0  0  0  0  0  0  0  0  0  0  0
   -3.0986    8.0022   -2.9014 N   0  0  0  0  0  0  0  0  0  0  0  0
   -4.4590    7.9068   -2.8908 C   0  0  0  0  0  0  0  0  0  0  0  0
   -5.1820    8.2178   -4.1670 C   0  0  0  0  0  0  0  0  0  0  0  0
   -6.3463    7.3929   -4.3632 N   0  0  0  0  0  0  0  0  0  0  0  0
   -6.4017    6.3943   -5.2523 C   0  0  0  0  0  0  0  0  0  0  0  0
   -7.7446    5.7818   -5.3934 C   0  0  0  0  0  0  0  0  0  0  0  0
   -7.8199    4.2817   -4.9676 C   0  0  0  0  0  0  0  0  0  0  0  0
   -9.2203    3.7358   -5.2253 C   0  0  0  0  0  0  0  0  0  0  0  0
   -7.4952    4.1390   -3.4734 C   0  0  0  0  0  0  0  0  0  0  0  0
   -8.1789    5.9344   -6.7478 N   0  0  0  0  0  0  0  0  0  0  0  0
   -9.2082    6.7751   -6.9794 C   0  0  0  0  0  0  0  0  0  0  0  0
   -9.8959    6.7731   -8.3179 C   0  0  0  0  0  0  0  0  0  0  0  0
  -11.3073    7.3446   -8.1769 C   0  0  0  0  0  0  0  0  0  0  0  0
  -12.0894    7.1210   -9.4119 C   0  0  0  0  0  0  0  0  0  0  0  0
  -12.0083    5.7044   -9.7802 N   0  0  0  0  0  0  0  0  0  0  0  0
  -13.0137    4.8088   -9.7437 C   0  0  0  0  0  0  0  0  0  0  0  0
  -14.2093    5.2126   -9.1901 C   0  0  0  0  0  0  0  0  0  0  0  0
  -15.2198    5.4794   -8.7586 C   0  0  0  0  0  0  0  0  0  0  0  0
  -16.4418    5.9000   -8.1159 C   0  0  0  0  0  0  0  0  0  0  0  0
  -16.1266    6.8879   -7.0650 N   0  0  0  0  0  0  0  0  0  0  0  0
  -15.1567    6.3966   -6.0709 C   0  0  0  0  0  0  0  0  0  0  0  0
  -15.7567    8.2166   -7.5677 C   0  0  0  0  0  0  0  0  0  0  0  0
  -17.1179    4.6878   -7.4907 C   0  0  0  0  0  0  0  0  0  0  0  0
  -17.3377    6.5369   -9.1781 C   0  0  0  0  0  0  0  0  0  0  0  0
  -12.8672    3.6576  -10.1539 O   0  0  0  0  0  0  0  0  0  0  0  0
  -10.7193    5.2024  -10.0378 C   0  0  0  0  0  0  0  0  0  0  0  0
  -10.0480    5.3264   -8.7308 C   0  0  0  0  0  0  0  0  0  0  0  0
   -9.6178    7.5308   -6.0877 O   0  0  0  0  0  0  0  0  0  0  0  0
   -7.4384    5.1544   -7.7833 C   0  0  0  0  0  0  0  0  0  0  0  0
   -5.4302    6.0662   -5.9222 O   0  0  0  0  0  0  0  0  0  0  0  0
   -5.6399    9.7021   -4.0684 C   0  0  0  0  0  0  0  0  0  0  0  0
   -6.1291   10.2210   -5.3892 C   0  0  0  0  0  0  0  0  0  0  0  0
   -4.9350   10.4954   -6.2620 C   0  0  0  0  0  0  0  0  0  0  0  0
   -5.3708   11.1431   -7.5103 N   0  0  0  0  0  0  0  0  0  0  0  0
   -6.1883   12.3932   -7.1982 C   0  0  0  0  0  0  0  0  0  0  0  0
   -7.3698   12.0202   -6.3659 C   0  0  0  0  0  0  0  0  0  0  0  0
   -6.8975   11.4004   -5.1515 O   0  0  0  0  0  0  0  0  0  0  0  0
   -5.0900    7.6565   -1.8870 O   0  0  0  0  0  0  0  0  0  0  0  0
   -2.2605    7.7849   -1.7269 C   0  0  0  0  0  0  0  0  0  0  0  0
   -1.4887    9.1022   -1.4375 C   0  0  0  0  0  0  0  0  0  0  0  0
   -0.7529    9.5715   -2.6771 C   0  0  0  0  0  0  0  0  0  0  0  0
   -0.7293    9.0332   -5.8801 O   0  0  0  0  0  0  0  0  0  0  0  0
   -2.2085   12.1584   -9.0310 C   0  0  0  0  0  0  0  0  0  0  0  0
   -2.1905   11.4016  -10.2016 C   0  0  0  0  0  0  0  0  0  0  0  0
   -3.2611   10.5086  -10.4684 C   0  0  0  0  0  0  0  0  0  0  0  0
   -4.2913   10.4269   -9.5516 C   0  0  0  0  0  0  0  0  0  0  0  0
   -4.2962   11.2285   -8.3954 C   0  0  0  0  0  0  0  0  0  0  0  0
   -3.2167   12.0828   -8.1421 C   0  0  0  0  0  0  0  0  0  0  0  0
   -9.1368    7.4888   -9.2299 F   0  0  0  0  0  0  0  0  0  0  0  0
  1  2  1  0  0  0  0
  2  3  1  0  0  0  0
  2  5  1  0  0  0  0
  3  4  1  0  0  0  0
  5  6  4  0  0  0  0
  5 10  4  0  0  0  0
  6  7  4  0  0  0  0
  7  8  4  0  0  0  0
  8  9  4  0  0  0  0
  9 10  4  0  0  0  0
 10 11  1  0  0  0  0
 11 12  4  0  0  0  0
 11 15  4  0  0  0  0
 12 13  1  0  0  0  0
 12 68  4  0  0  0  0
 13 14  1  0  0  0  0
 15 16  1  0  0  0  0
 15 67  4  0  0  0  0
 16 17  1  0  0  0  0
 17 18  1  0  0  0  0
 17 19  1  0  0  0  0
 17 20  1  0  0  0  0
 20 21  1  0  0  0  0
 21 22  1  0  0  0  0
 22 23  1  0  0  0  0
 22 66  2  0  0  0  0
 23 24  1  0  0  0  0
 23 65  1  0  0  0  0
 24 25  1  0  0  0  0
 25 26  1  0  0  0  0
 25 63  1  0  0  0  0
 26 27  1  0  0  0  0
 26 62  2  0  0  0  0
 27 28  1  0  0  0  0
 27 55  1  0  0  0  0
 28 29  1  0  0  0  0
 29 30  1  0  0  0  0
 29 54  2  0  0  0  0
 30 31  1  0  0  0  0
 30 34  1  0  0  0  0
 31 32  1  0  0  0  0
 31 33  1  0  0  0  0
 34 35  1  0  0  0  0
 34 53  1  0  0  0  0
 35 36  1  0  0  0  0
 35 52  2  0  0  0  0
 36 37  1  0  0  0  0
 36 51  1  0  0  0  0
 36 73  1  0  0  0  0
 37 38  1  0  0  0  0
 38 39  1  0  0  0  0
 39 40  1  0  0  0  0
 39 50  1  0  0  0  0
 40 41  1  0  0  0  0
 40 49  2  0  0  0  0
 41 42  1  0  0  0  0
 42 43  1  0  0  0  0
 43 44  1  0  0  0  0
 43 47  1  0  0  0  0
 43 48  1  0  0  0  0
 44 45  1  0  0  0  0
 44 46  1  0  0  0  0
 50 51  1  0  0  0  0
 55 56  1  0  0  0  0
 56 57  1  0  0  0  0
 56 61  1  0  0  0  0
 57 58  1  0  0  0  0
 58 59  1  0  0  0  0
 58 71  1  0  0  0  0
 59 60  1  0  0  0  0
 60 61  1  0  0  0  0
 63 64  1  0  0  0  0
 64 65  1  0  0  0  0
 67 68  4  0  0  0  0
 67 72  4  0  0  0  0
 68 69  4  0  0  0  0
 69 70  4  0  0  0  0
 70 71  4  0  0  0  0
 71 72  4  0  0  0  0
M  END
$$$$
