mol_ETKDG0_155
  PyMOL3.1          3D                             0

 73 79  0  0  0  0  0  0  0  0999 V2000
   -0.0900   16.6836  -10.7390 C   0  0  0  0  0  0  0  0  0  0  0  0
    0.0855   15.2540  -11.2403 C   0  0  0  0  0  0  0  0  0  0  0  0
    0.1326   15.1535  -12.6402 O   0  0  0  0  0  0  0  0  0  0  0  0
   -0.9633   14.4920  -13.2629 C   0  0  0  0  0  0  0  0  0  0  0  0
    1.3177   14.6402  -10.7009 C   0  0  0  0  0  0  0  0  0  0  0  0
    2.4759   15.2194  -10.9860 N   0  0  0  0  0  0  0  0  0  0  0  0
    3.6292   14.6926  -10.5320 C   0  0  0  0  0  0  0  0  0  0  0  0
    3.6344   13.5428   -9.7415 C   0  0  0  0  0  0  0  0  0  0  0  0
    2.4413   12.9502   -9.4505 C   0  0  0  0  0  0  0  0  0  0  0  0
    1.2814   13.4889   -9.9423 C   0  0  0  0  0  0  0  0  0  0  0  0
    0.0236   12.8677   -9.6231 C   0  0  0  0  0  0  0  0  0  0  0  0
   -0.5527   11.8667  -10.3397 N   0  0  0  0  0  0  0  0  0  0  0  0
   -0.0064   11.1819  -11.5143 C   0  0  0  0  0  0  0  0  0  0  0  0
    0.6129    9.8428  -11.0824 C   0  0  0  0  0  0  0  0  0  0  0  0
   -0.8281   13.2270   -8.5823 C   0  0  0  0  0  0  0  0  0  0  0  0
   -0.6608   14.2445   -7.5136 C   0  0  0  0  0  0  0  0  0  0  0  0
   -0.0271   13.7048   -6.2027 C   0  0  0  0  0  0  0  0  0  0  0  0
   -0.7802   14.3035   -5.0175 C   0  0  0  0  0  0  0  0  0  0  0  0
    1.4503   14.1309   -6.1214 C   0  0  0  0  0  0  0  0  0  0  0  0
   -0.0049   12.2446   -6.0837 C   0  0  0  0  0  0  0  0  0  0  0  0
   -0.7057   11.6065   -5.0101 O   0  0  0  0  0  0  0  0  0  0  0  0
   -0.9676   10.2214   -4.9757 C   0  0  0  0  0  0  0  0  0  0  0  0
   -1.6944    9.8232   -3.7405 C   0  0  0  0  0  0  0  0  0  0  0  0
   -2.3933    8.5627   -3.9841 N   0  0  0  0  0  0  0  0  0  0  0  0
   -3.0732    8.1023   -2.8790 N   0  0  0  0  0  0  0  0  0  0  0  0
   -4.4373    8.0188   -2.8688 C   0  0  0  0  0  0  0  0  0  0  0  0
   -5.1546    8.3805   -4.1422 C   0  0  0  0  0  0  0  0  0  0  0  0
   -6.3341    7.5716   -4.3748 N   0  0  0  0  0  0  0  0  0  0  0  0
   -6.3945    6.6180   -5.3068 C   0  0  0  0  0  0  0  0  0  0  0  0
   -7.7706    6.0470   -5.4830 C   0  0  0  0  0  0  0  0  0  0  0  0
   -7.8611    4.5290   -5.1380 C   0  0  0  0  0  0  0  0  0  0  0  0
   -9.2567    4.0004   -5.4344 C   0  0  0  0  0  0  0  0  0  0  0  0
   -7.5424    4.3146   -3.6471 C   0  0  0  0  0  0  0  0  0  0  0  0
   -8.2050    6.3174   -6.8351 N   0  0  0  0  0  0  0  0  0  0  0  0
   -9.1272    7.3037   -7.0259 C   0  0  0  0  0  0  0  0  0  0  0  0
   -9.7630    7.4683   -8.3863 C   0  0  0  0  0  0  0  0  0  0  0  0
  -10.8759    8.5169   -8.4092 C   0  0  0  0  0  0  0  0  0  0  0  0
  -11.5460    8.5295   -9.7492 C   0  0  0  0  0  0  0  0  0  0  0  0
  -11.9574    7.1627  -10.1200 N   0  0  0  0  0  0  0  0  0  0  0  0
  -13.2130    6.7522  -10.4343 C   0  0  0  0  0  0  0  0  0  0  0  0
  -14.2943    7.6282  -10.3824 C   0  0  0  0  0  0  0  0  0  0  0  0
  -15.2887    8.2189  -10.4058 C   0  0  0  0  0  0  0  0  0  0  0  0
  -16.4944    8.9946  -10.3549 C   0  0  0  0  0  0  0  0  0  0  0  0
  -16.4131    9.9901   -9.2742 N   0  0  0  0  0  0  0  0  0  0  0  0
  -16.1607    9.4007   -7.9452 C   0  0  0  0  0  0  0  0  0  0  0  0
  -15.5073   11.1167   -9.5591 C   0  0  0  0  0  0  0  0  0  0  0  0
  -17.6852    8.0621  -10.0770 C   0  0  0  0  0  0  0  0  0  0  0  0
  -16.6781    9.6977  -11.7078 C   0  0  0  0  0  0  0  0  0  0  0  0
  -13.4070    5.5877  -10.7537 O   0  0  0  0  0  0  0  0  0  0  0  0
  -10.9533    6.1469  -10.0962 C   0  0  0  0  0  0  0  0  0  0  0  0
  -10.4058    6.1344   -8.7223 C   0  0  0  0  0  0  0  0  0  0  0  0
   -9.4718    8.0420   -6.0896 O   0  0  0  0  0  0  0  0  0  0  0  0
   -7.5821    5.5096   -7.9208 C   0  0  0  0  0  0  0  0  0  0  0  0
   -5.4347    6.2804   -5.9833 O   0  0  0  0  0  0  0  0  0  0  0  0
   -5.6178    9.8663   -4.0104 C   0  0  0  0  0  0  0  0  0  0  0  0
   -6.0571   10.4062   -5.3528 C   0  0  0  0  0  0  0  0  0  0  0  0
   -4.8208   10.7179   -6.1427 C   0  0  0  0  0  0  0  0  0  0  0  0
   -5.1825   11.3415   -7.4253 N   0  0  0  0  0  0  0  0  0  0  0  0
   -6.0621   12.5773   -7.1778 C   0  0  0  0  0  0  0  0  0  0  0  0
   -7.2822   12.1750   -6.4061 C   0  0  0  0  0  0  0  0  0  0  0  0
   -6.8672   11.5693   -5.1619 O   0  0  0  0  0  0  0  0  0  0  0  0
   -5.0729    7.7492   -1.8723 O   0  0  0  0  0  0  0  0  0  0  0  0
   -2.2296    7.8328   -1.7065 C   0  0  0  0  0  0  0  0  0  0  0  0
   -1.4780    9.1250   -1.3541 C   0  0  0  0  0  0  0  0  0  0  0  0
   -0.7276    9.6466   -2.5652 C   0  0  0  0  0  0  0  0  0  0  0  0
   -0.6758    9.3445   -5.8253 O   0  0  0  0  0  0  0  0  0  0  0  0
   -1.9160   12.3976   -8.6948 C   0  0  0  0  0  0  0  0  0  0  0  0
   -1.7214   11.5526   -9.7772 C   0  0  0  0  0  0  0  0  0  0  0  0
   -2.7125   10.5866  -10.0875 C   0  0  0  0  0  0  0  0  0  0  0  0
   -3.8466   10.5242   -9.2782 C   0  0  0  0  0  0  0  0  0  0  0  0
   -4.0257   11.4237   -8.2088 C   0  0  0  0  0  0  0  0  0  0  0  0
   -3.0232   12.3485   -7.9230 C   0  0  0  0  0  0  0  0  0  0  0  0
   -8.7899    7.8284   -9.3130 F   0  0  0  0  0  0  0  0  0  0  0  0
  1  2  1  0  0  0  0
  2  3  1  0  0  0  0
  2  5  1  0  0  0  0
  3  4  1  0  0  0  0
  5  6  4  0  0  0  0
  5 10  4  0  0  0  0
  6  7  4  0  0  0  0
  7  8  4  0  0  0  0
  8  9  4  0  0  0  0
  9 10  4  0  0  0  0
 10 11  1  0  0  0  0
 11 12  4  0  0  0  0
 11 15  4  0  0  0  0
 12 13  1  0  0  0  0
 12 68  4  0  0  0  0
 13 14  1  0  0  0  0
 15 16  1  0  0  0  0
 15 67  4  0  0  0  0
 16 17  1  0  0  0  0
 17 18  1  0  0  0  0
 17 19  1  0  0  0  0
 17 20  1  0  0  0  0
 20 21  1  0  0  0  0
 21 22  1  0  0  0  0
 22 23  1  0  0  0  0
 22 66  2  0  0  0  0
 23 24  1  0  0  0  0
 23 65  1  0  0  0  0
 24 25  1  0  0  0  0
 25 26  1  0  0  0  0
 25 63  1  0  0  0  0
 26 27  1  0  0  0  0
 26 62  2  0  0  0  0
 27 28  1  0  0  0  0
 27 55  1  0  0  0  0
 28 29  1  0  0  0  0
 29 30  1  0  0  0  0
 29 54  2  0  0  0  0
 30 31  1  0  0  0  0
 30 34  1  0  0  0  0
 31 32  1  0  0  0  0
 31 33  1  0  0  0  0
 34 35  1  0  0  0  0
 34 53  1  0  0  0  0
 35 36  1  0  0  0  0
 35 52  2  0  0  0  0
 36 37  1  0  0  0  0
 36 51  1  0  0  0  0
 36 73  1  0  0  0  0
 37 38  1  0  0  0  0
 38 39  1  0  0  0  0
 39 40  1  0  0  0  0
 39 50  1  0  0  0  0
 40 41  1  0  0  0  0
 40 49  2  0  0  0  0
 41 42  1  0  0  0  0
 42 43  1  0  0  0  0
 43 44  1  0  0  0  0
 43 47  1  0  0  0  0
 43 48  1  0  0  0  0
 44 45  1  0  0  0  0
 44 46  1  0  0  0  0
 50 51  1  0  0  0  0
 55 56  1  0  0  0  0
 56 57  1  0  0  0  0
 56 61  1  0  0  0  0
 57 58  1  0  0  0  0
 58 59  1  0  0  0  0
 58 71  1  0  0  0  0
 59 60  1  0  0  0  0
 60 61  1  0  0  0  0
 63 64  1  0  0  0  0
 64 65  1  0  0  0  0
 67 68  4  0  0  0  0
 67 72  4  0  0  0  0
 68 69  4  0  0  0  0
 69 70  4  0  0  0  0
 70 71  4  0  0  0  0
 71 72  4  0  0  0  0
M  END
$$$$
