mol_ETKDG5_135
  PyMOL3.1          3D                             0

 73 79  0  0  0  0  0  0  0  0999 V2000
   -0.3713   16.4337  -11.2847 C   0  0  0  0  0  0  0  0  0  0  0  0
   -0.3938   14.9586  -11.6205 C   0  0  0  0  0  0  0  0  0  0  0  0
   -0.6555   14.6870  -12.9773 O   0  0  0  0  0  0  0  0  0  0  0  0
   -2.0086   14.7007  -13.3865 C   0  0  0  0  0  0  0  0  0  0  0  0
    0.8689   14.2828  -11.2738 C   0  0  0  0  0  0  0  0  0  0  0  0
    2.0074   14.8508  -11.6400 N   0  0  0  0  0  0  0  0  0  0  0  0
    3.1786   14.2482  -11.3711 C   0  0  0  0  0  0  0  0  0  0  0  0
    3.2266   13.0331  -10.6854 C   0  0  0  0  0  0  0  0  0  0  0  0
    2.0552   12.4565  -10.3060 C   0  0  0  0  0  0  0  0  0  0  0  0
    0.8793   13.0780  -10.6129 C   0  0  0  0  0  0  0  0  0  0  0  0
   -0.3534   12.4720  -10.1854 C   0  0  0  0  0  0  0  0  0  0  0  0
   -1.0211   11.5149  -10.8858 N   0  0  0  0  0  0  0  0  0  0  0  0
   -0.6379   10.9033  -12.1557 C   0  0  0  0  0  0  0  0  0  0  0  0
   -0.0243    9.5205  -11.9027 C   0  0  0  0  0  0  0  0  0  0  0  0
   -1.0658   12.8184   -9.0495 C   0  0  0  0  0  0  0  0  0  0  0  0
   -0.7807   13.8262   -7.9865 C   0  0  0  0  0  0  0  0  0  0  0  0
   -0.0241   13.2972   -6.7284 C   0  0  0  0  0  0  0  0  0  0  0  0
   -0.5907   14.0120   -5.4993 C   0  0  0  0  0  0  0  0  0  0  0  0
    1.4772   13.6444   -6.8293 C   0  0  0  0  0  0  0  0  0  0  0  0
   -0.0687   11.8885   -6.5354 C   0  0  0  0  0  0  0  0  0  0  0  0
   -0.7052   11.3612   -5.3245 O   0  0  0  0  0  0  0  0  0  0  0  0
   -0.9898    9.9960   -5.1565 C   0  0  0  0  0  0  0  0  0  0  0  0
   -1.6922    9.6958   -3.8760 C   0  0  0  0  0  0  0  0  0  0  0  0
   -2.3870    8.4308   -4.0342 N   0  0  0  0  0  0  0  0  0  0  0  0
   -3.0514    8.0223   -2.9002 N   0  0  0  0  0  0  0  0  0  0  0  0
   -4.4132    7.9391   -2.8751 C   0  0  0  0  0  0  0  0  0  0  0  0
   -5.1357    8.2488   -4.1569 C   0  0  0  0  0  0  0  0  0  0  0  0
   -6.3165    7.4386   -4.3414 N   0  0  0  0  0  0  0  0  0  0  0  0
   -6.4203    6.4853   -5.2777 C   0  0  0  0  0  0  0  0  0  0  0  0
   -7.7996    5.9121   -5.3905 C   0  0  0  0  0  0  0  0  0  0  0  0
   -7.9007    4.4023   -5.0379 C   0  0  0  0  0  0  0  0  0  0  0  0
   -9.3274    3.9163   -5.2519 C   0  0  0  0  0  0  0  0  0  0  0  0
   -7.5040    4.1916   -3.5705 C   0  0  0  0  0  0  0  0  0  0  0  0
   -8.3068    6.1987   -6.7073 N   0  0  0  0  0  0  0  0  0  0  0  0
   -9.1168    7.2670   -6.8355 C   0  0  0  0  0  0  0  0  0  0  0  0
   -9.8802    7.5098   -8.1079 C   0  0  0  0  0  0  0  0  0  0  0  0
  -10.6568    8.8135   -8.0096 C   0  0  0  0  0  0  0  0  0  0  0  0
  -11.5627    8.9558   -9.1746 C   0  0  0  0  0  0  0  0  0  0  0  0
  -12.3852    7.7543   -9.2396 N   0  0  0  0  0  0  0  0  0  0  0  0
  -13.6963    7.7100   -8.9119 C   0  0  0  0  0  0  0  0  0  0  0  0
  -14.2204    8.6639   -8.0470 C   0  0  0  0  0  0  0  0  0  0  0  0
  -14.7265    9.4012   -7.3469 C   0  0  0  0  0  0  0  0  0  0  0  0
  -15.2787   10.3144   -6.3625 C   0  0  0  0  0  0  0  0  0  0  0  0
  -14.2512   11.2595   -5.8988 N   0  0  0  0  0  0  0  0  0  0  0  0
  -13.1892   10.6507   -5.0944 C   0  0  0  0  0  0  0  0  0  0  0  0
  -13.7120   12.1342   -6.9591 C   0  0  0  0  0  0  0  0  0  0  0  0
  -15.8063    9.5220   -5.1661 C   0  0  0  0  0  0  0  0  0  0  0  0
  -16.4287   11.0829   -7.0087 C   0  0  0  0  0  0  0  0  0  0  0  0
  -14.3994    6.7965   -9.3035 O   0  0  0  0  0  0  0  0  0  0  0  0
  -11.7025    6.5154   -9.4631 C   0  0  0  0  0  0  0  0  0  0  0  0
  -10.8521    6.3369   -8.2393 C   0  0  0  0  0  0  0  0  0  0  0  0
   -9.2820    8.0436   -5.8776 O   0  0  0  0  0  0  0  0  0  0  0  0
   -7.8762    5.3044   -7.8286 C   0  0  0  0  0  0  0  0  0  0  0  0
   -5.5046    6.1504   -6.0139 O   0  0  0  0  0  0  0  0  0  0  0  0
   -5.5796    9.7379   -4.0738 C   0  0  0  0  0  0  0  0  0  0  0  0
   -6.0981   10.2346   -5.4039 C   0  0  0  0  0  0  0  0  0  0  0  0
   -4.9065   10.4657   -6.2931 C   0  0  0  0  0  0  0  0  0  0  0  0
   -5.3471   11.0584   -7.5638 N   0  0  0  0  0  0  0  0  0  0  0  0
   -6.1822   12.3116   -7.3203 C   0  0  0  0  0  0  0  0  0  0  0  0
   -7.3442   11.9796   -6.4350 C   0  0  0  0  0  0  0  0  0  0  0  0
   -6.8520   11.4202   -5.2046 O   0  0  0  0  0  0  0  0  0  0  0  0
   -5.0408    7.7109   -1.8725 O   0  0  0  0  0  0  0  0  0  0  0  0
   -2.2073    7.8171   -1.7279 C   0  0  0  0  0  0  0  0  0  0  0  0
   -1.4393    9.1425   -1.4508 C   0  0  0  0  0  0  0  0  0  0  0  0
   -0.7160    9.5965   -2.7015 C   0  0  0  0  0  0  0  0  0  0  0  0
   -0.7559    9.0407   -5.9438 O   0  0  0  0  0  0  0  0  0  0  0  0
   -2.1759   12.0153   -9.0896 C   0  0  0  0  0  0  0  0  0  0  0  0
   -2.1235   11.2123  -10.2177 C   0  0  0  0  0  0  0  0  0  0  0  0
   -3.1844   10.2925  -10.4609 C   0  0  0  0  0  0  0  0  0  0  0  0
   -4.2268   10.2462   -9.5558 C   0  0  0  0  0  0  0  0  0  0  0  0
   -4.2621   11.1073   -8.4432 C   0  0  0  0  0  0  0  0  0  0  0  0
   -3.1942   11.9738   -8.2172 C   0  0  0  0  0  0  0  0  0  0  0  0
   -9.0061    7.5759   -9.1881 F   0  0  0  0  0  0  0  0  0  0  0  0
  1  2  1  0  0  0  0
  2  3  1  0  0  0  0
  2  5  1  0  0  0  0
  3  4  1  0  0  0  0
  5  6  4  0  0  0  0
  5 10  4  0  0  0  0
  6  7  4  0  0  0  0
  7  8  4  0  0  0  0
  8  9  4  0  0  0  0
  9 10  4  0  0  0  0
 10 11  1  0  0  0  0
 11 12  4  0  0  0  0
 11 15  4  0  0  0  0
 12 13  1  0  0  0  0
 12 68  4  0  0  0  0
 13 14  1  0  0  0  0
 15 16  1  0  0  0  0
 15 67  4  0  0  0  0
 16 17  1  0  0  0  0
 17 18  1  0  0  0  0
 17 19  1  0  0  0  0
 17 20  1  0  0  0  0
 20 21  1  0  0  0  0
 21 22  1  0  0  0  0
 22 23  1  0  0  0  0
 22 66  2  0  0  0  0
 23 24  1  0  0  0  0
 23 65  1  0  0  0  0
 24 25  1  0  0  0  0
 25 26  1  0  0  0  0
 25 63  1  0  0  0  0
 26 27  1  0  0  0  0
 26 62  2  0  0  0  0
 27 28  1  0  0  0  0
 27 55  1  0  0  0  0
 28 29  1  0  0  0  0
 29 30  1  0  0  0  0
 29 54  2  0  0  0  0
 30 31  1  0  0  0  0
 30 34  1  0  0  0  0
 31 32  1  0  0  0  0
 31 33  1  0  0  0  0
 34 35  1  0  0  0  0
 34 53  1  0  0  0  0
 35 36  1  0  0  0  0
 35 52  2  0  0  0  0
 36 37  1  0  0  0  0
 36 51  1  0  0  0  0
 36 73  1  0  0  0  0
 37 38  1  0  0  0  0
 38 39  1  0  0  0  0
 39 40  1  0  0  0  0
 39 50  1  0  0  0  0
 40 41  1  0  0  0  0
 40 49  2  0  0  0  0
 41 42  1  0  0  0  0
 42 43  1  0  0  0  0
 43 44  1  0  0  0  0
 43 47  1  0  0  0  0
 43 48  1  0  0  0  0
 44 45  1  0  0  0  0
 44 46  1  0  0  0  0
 50 51  1  0  0  0  0
 55 56  1  0  0  0  0
 56 57  1  0  0  0  0
 56 61  1  0  0  0  0
 57 58  1  0  0  0  0
 58 59  1  0  0  0  0
 58 71  1  0  0  0  0
 59 60  1  0  0  0  0
 60 61  1  0  0  0  0
 63 64  1  0  0  0  0
 64 65  1  0  0  0  0
 67 68  4  0  0  0  0
 67 72  4  0  0  0  0
 68 69  4  0  0  0  0
 69 70  4  0  0  0  0
 70 71  4  0  0  0  0
 71 72  4  0  0  0  0
M  END
$$$$
