mol_ETKDG1_27
  PyMOL3.1          3D                             0

 73 79  0  0  0  0  0  0  0  0999 V2000
   -0.0933   15.0945  -13.3717 C   0  0  0  0  0  0  0  0  0  0  0  0
   -0.2152   14.7272  -11.9062 C   0  0  0  0  0  0  0  0  0  0  0  0
   -0.6038   15.7904  -11.0968 O   0  0  0  0  0  0  0  0  0  0  0  0
   -1.9897   16.1185  -11.0561 C   0  0  0  0  0  0  0  0  0  0  0  0
    1.0531   14.1947  -11.3583 C   0  0  0  0  0  0  0  0  0  0  0  0
    2.1933   14.7588  -11.7253 N   0  0  0  0  0  0  0  0  0  0  0  0
    3.3612   14.2948  -11.2638 C   0  0  0  0  0  0  0  0  0  0  0  0
    3.4103   13.1967  -10.4019 C   0  0  0  0  0  0  0  0  0  0  0  0
    2.2447   12.6110  -10.0325 C   0  0  0  0  0  0  0  0  0  0  0  0
    1.0632   13.1158  -10.5030 C   0  0  0  0  0  0  0  0  0  0  0  0
   -0.1746   12.5214  -10.0820 C   0  0  0  0  0  0  0  0  0  0  0  0
   -0.8206   11.5380  -10.7620 N   0  0  0  0  0  0  0  0  0  0  0  0
   -0.3783   10.8651  -11.9917 C   0  0  0  0  0  0  0  0  0  0  0  0
    0.2368    9.4993  -11.6475 C   0  0  0  0  0  0  0  0  0  0  0  0
   -0.9373   12.8980   -8.9730 C   0  0  0  0  0  0  0  0  0  0  0  0
   -0.6890   13.9264   -7.9207 C   0  0  0  0  0  0  0  0  0  0  0  0
    0.0226   13.4169   -6.6342 C   0  0  0  0  0  0  0  0  0  0  0  0
   -0.5837   14.1232   -5.4137 C   0  0  0  0  0  0  0  0  0  0  0  0
    1.5329   13.7373   -6.6774 C   0  0  0  0  0  0  0  0  0  0  0  0
   -0.0360   11.9834   -6.4284 C   0  0  0  0  0  0  0  0  0  0  0  0
   -0.7200   11.4459   -5.2535 O   0  0  0  0  0  0  0  0  0  0  0  0
   -0.9966   10.0749   -5.1018 C   0  0  0  0  0  0  0  0  0  0  0  0
   -1.7263    9.7474   -3.8412 C   0  0  0  0  0  0  0  0  0  0  0  0
   -2.4298    8.4842   -4.0389 N   0  0  0  0  0  0  0  0  0  0  0  0
   -3.1049    8.0397   -2.9229 N   0  0  0  0  0  0  0  0  0  0  0  0
   -4.4662    7.9347   -2.9187 C   0  0  0  0  0  0  0  0  0  0  0  0
   -5.1885    8.2445   -4.2072 C   0  0  0  0  0  0  0  0  0  0  0  0
   -6.3747    7.4322   -4.4101 N   0  0  0  0  0  0  0  0  0  0  0  0
   -6.4804    6.4774   -5.3338 C   0  0  0  0  0  0  0  0  0  0  0  0
   -7.8506    5.8863   -5.4695 C   0  0  0  0  0  0  0  0  0  0  0  0
   -7.9295    4.3768   -5.0857 C   0  0  0  0  0  0  0  0  0  0  0  0
   -9.3436    3.8576   -5.3048 C   0  0  0  0  0  0  0  0  0  0  0  0
   -7.5405    4.1991   -3.6111 C   0  0  0  0  0  0  0  0  0  0  0  0
   -8.3398    6.1167   -6.8097 N   0  0  0  0  0  0  0  0  0  0  0  0
   -9.2562    7.1097   -6.9878 C   0  0  0  0  0  0  0  0  0  0  0  0
   -9.9979    7.2306   -8.3045 C   0  0  0  0  0  0  0  0  0  0  0  0
  -11.0011    8.3864   -8.2990 C   0  0  0  0  0  0  0  0  0  0  0  0
  -11.7940    8.3761   -9.5511 C   0  0  0  0  0  0  0  0  0  0  0  0
  -12.3920    7.0474   -9.7590 N   0  0  0  0  0  0  0  0  0  0  0  0
  -13.7069    6.7871   -9.8728 C   0  0  0  0  0  0  0  0  0  0  0  0
  -14.6217    7.7992   -9.5923 C   0  0  0  0  0  0  0  0  0  0  0  0
  -15.4786    8.5283   -9.3786 C   0  0  0  0  0  0  0  0  0  0  0  0
  -16.4951    9.4708   -9.0192 C   0  0  0  0  0  0  0  0  0  0  0  0
  -16.3421    9.8546   -7.6004 N   0  0  0  0  0  0  0  0  0  0  0  0
  -16.1396    8.7056   -6.7008 C   0  0  0  0  0  0  0  0  0  0  0  0
  -15.3469   10.9054   -7.3570 C   0  0  0  0  0  0  0  0  0  0  0  0
  -17.8694    8.8163   -9.2092 C   0  0  0  0  0  0  0  0  0  0  0  0
  -16.3403   10.6989   -9.9245 C   0  0  0  0  0  0  0  0  0  0  0  0
  -14.1064    5.6726  -10.1727 O   0  0  0  0  0  0  0  0  0  0  0  0
  -11.4968    5.9249   -9.7676 C   0  0  0  0  0  0  0  0  0  0  0  0
  -10.7952    5.9416   -8.4598 C   0  0  0  0  0  0  0  0  0  0  0  0
   -9.5198    7.8973   -6.0644 O   0  0  0  0  0  0  0  0  0  0  0  0
   -7.8004    5.2502   -7.8957 C   0  0  0  0  0  0  0  0  0  0  0  0
   -5.5355    6.1403   -6.0434 O   0  0  0  0  0  0  0  0  0  0  0  0
   -5.6326    9.7371   -4.1148 C   0  0  0  0  0  0  0  0  0  0  0  0
   -6.1047   10.2632   -5.4534 C   0  0  0  0  0  0  0  0  0  0  0  0
   -4.8868   10.4772   -6.3126 C   0  0  0  0  0  0  0  0  0  0  0  0
   -5.2672   11.1255   -7.5755 N   0  0  0  0  0  0  0  0  0  0  0  0
   -6.0727   12.4091   -7.2901 C   0  0  0  0  0  0  0  0  0  0  0  0
   -7.2686   12.0800   -6.4686 C   0  0  0  0  0  0  0  0  0  0  0  0
   -6.8367   11.4600   -5.2436 O   0  0  0  0  0  0  0  0  0  0  0  0
   -5.1009    7.6847   -1.9227 O   0  0  0  0  0  0  0  0  0  0  0  0
   -2.2739    7.8104   -1.7518 C   0  0  0  0  0  0  0  0  0  0  0  0
   -1.5114    9.1306   -1.4303 C   0  0  0  0  0  0  0  0  0  0  0  0
   -0.7638    9.6182   -2.6600 C   0  0  0  0  0  0  0  0  0  0  0  0
   -0.7135    9.1283   -5.8807 O   0  0  0  0  0  0  0  0  0  0  0  0
   -2.0447   12.0905   -9.0203 C   0  0  0  0  0  0  0  0  0  0  0  0
   -1.9444   11.2495  -10.1200 C   0  0  0  0  0  0  0  0  0  0  0  0
   -2.9802   10.3128  -10.3699 C   0  0  0  0  0  0  0  0  0  0  0  0
   -4.0573   10.2753   -9.5034 C   0  0  0  0  0  0  0  0  0  0  0  0
   -4.1488   11.1730   -8.4121 C   0  0  0  0  0  0  0  0  0  0  0  0
   -3.0872   12.0582   -8.1860 C   0  0  0  0  0  0  0  0  0  0  0  0
   -9.0965    7.4027   -9.3428 F   0  0  0  0  0  0  0  0  0  0  0  0
  1  2  1  0  0  0  0
  2  3  1  0  0  0  0
  2  5  1  0  0  0  0
  3  4  1  0  0  0  0
  5  6  4  0  0  0  0
  5 10  4  0  0  0  0
  6  7  4  0  0  0  0
  7  8  4  0  0  0  0
  8  9  4  0  0  0  0
  9 10  4  0  0  0  0
 10 11  1  0  0  0  0
 11 12  4  0  0  0  0
 11 15  4  0  0  0  0
 12 13  1  0  0  0  0
 12 68  4  0  0  0  0
 13 14  1  0  0  0  0
 15 16  1  0  0  0  0
 15 67  4  0  0  0  0
 16 17  1  0  0  0  0
 17 18  1  0  0  0  0
 17 19  1  0  0  0  0
 17 20  1  0  0  0  0
 20 21  1  0  0  0  0
 21 22  1  0  0  0  0
 22 23  1  0  0  0  0
 22 66  2  0  0  0  0
 23 24  1  0  0  0  0
 23 65  1  0  0  0  0
 24 25  1  0  0  0  0
 25 26  1  0  0  0  0
 25 63  1  0  0  0  0
 26 27  1  0  0  0  0
 26 62  2  0  0  0  0
 27 28  1  0  0  0  0
 27 55  1  0  0  0  0
 28 29  1  0  0  0  0
 29 30  1  0  0  0  0
 29 54  2  0  0  0  0
 30 31  1  0  0  0  0
 30 34  1  0  0  0  0
 31 32  1  0  0  0  0
 31 33  1  0  0  0  0
 34 35  1  0  0  0  0
 34 53  1  0  0  0  0
 35 36  1  0  0  0  0
 35 52  2  0  0  0  0
 36 37  1  0  0  0  0
 36 51  1  0  0  0  0
 36 73  1  0  0  0  0
 37 38  1  0  0  0  0
 38 39  1  0  0  0  0
 39 40  1  0  0  0  0
 39 50  1  0  0  0  0
 40 41  1  0  0  0  0
 40 49  2  0  0  0  0
 41 42  1  0  0  0  0
 42 43  1  0  0  0  0
 43 44  1  0  0  0  0
 43 47  1  0  0  0  0
 43 48  1  0  0  0  0
 44 45  1  0  0  0  0
 44 46  1  0  0  0  0
 50 51  1  0  0  0  0
 55 56  1  0  0  0  0
 56 57  1  0  0  0  0
 56 61  1  0  0  0  0
 57 58  1  0  0  0  0
 58 59  1  0  0  0  0
 58 71  1  0  0  0  0
 59 60  1  0  0  0  0
 60 61  1  0  0  0  0
 63 64  1  0  0  0  0
 64 65  1  0  0  0  0
 67 68  4  0  0  0  0
 67 72  4  0  0  0  0
 68 69  4  0  0  0  0
 69 70  4  0  0  0  0
 70 71  4  0  0  0  0
 71 72  4  0  0  0  0
M  END
$$$$
