mol_ETKDG5_134
  PyMOL3.1          3D                             0

 73 79  0  0  0  0  0  0  0  0999 V2000
   -0.3498   15.1896  -13.1609 C   0  0  0  0  0  0  0  0  0  0  0  0
   -0.2429   14.9066  -11.6721 C   0  0  0  0  0  0  0  0  0  0  0  0
   -0.3793   16.0478  -10.8689 O   0  0  0  0  0  0  0  0  0  0  0  0
   -1.6942   16.5112  -10.5704 C   0  0  0  0  0  0  0  0  0  0  0  0
    1.0397   14.2804  -11.3215 C   0  0  0  0  0  0  0  0  0  0  0  0
    2.1533   14.8791  -11.7146 N   0  0  0  0  0  0  0  0  0  0  0  0
    3.3481   14.3280  -11.4301 C   0  0  0  0  0  0  0  0  0  0  0  0
    3.4379   13.1173  -10.7363 C   0  0  0  0  0  0  0  0  0  0  0  0
    2.2887   12.5029  -10.3418 C   0  0  0  0  0  0  0  0  0  0  0  0
    1.0861   13.0932  -10.6298 C   0  0  0  0  0  0  0  0  0  0  0  0
   -0.1345   12.4682  -10.1821 C   0  0  0  0  0  0  0  0  0  0  0  0
   -0.7837   11.4958  -10.8717 N   0  0  0  0  0  0  0  0  0  0  0  0
   -0.3789   10.8805  -12.1360 C   0  0  0  0  0  0  0  0  0  0  0  0
    0.2810    9.5230  -11.8636 C   0  0  0  0  0  0  0  0  0  0  0  0
   -0.8665   12.8101   -9.0486 C   0  0  0  0  0  0  0  0  0  0  0  0
   -0.6182   13.8199   -7.9739 C   0  0  0  0  0  0  0  0  0  0  0  0
    0.1746   13.2915   -6.7334 C   0  0  0  0  0  0  0  0  0  0  0  0
   -0.2881   14.0677   -5.4926 C   0  0  0  0  0  0  0  0  0  0  0  0
    1.6865   13.5547   -6.9261 C   0  0  0  0  0  0  0  0  0  0  0  0
    0.0672   11.8946   -6.5009 C   0  0  0  0  0  0  0  0  0  0  0  0
   -0.6128   11.3990   -5.2935 O   0  0  0  0  0  0  0  0  0  0  0  0
   -0.9204   10.0351   -5.1074 C   0  0  0  0  0  0  0  0  0  0  0  0
   -1.6452    9.7440   -3.8341 C   0  0  0  0  0  0  0  0  0  0  0  0
   -2.3491    8.4860   -4.0107 N   0  0  0  0  0  0  0  0  0  0  0  0
   -3.0258    8.0555   -2.8848 N   0  0  0  0  0  0  0  0  0  0  0  0
   -4.3876    7.9462   -2.8837 C   0  0  0  0  0  0  0  0  0  0  0  0
   -5.0957    8.2422   -4.1770 C   0  0  0  0  0  0  0  0  0  0  0  0
   -6.2764    7.4268   -4.3696 N   0  0  0  0  0  0  0  0  0  0  0  0
   -6.3624    6.4604   -5.2924 C   0  0  0  0  0  0  0  0  0  0  0  0
   -7.7319    5.8640   -5.4406 C   0  0  0  0  0  0  0  0  0  0  0  0
   -7.8182    4.3575   -5.0499 C   0  0  0  0  0  0  0  0  0  0  0  0
   -9.2295    3.8354   -5.2996 C   0  0  0  0  0  0  0  0  0  0  0  0
   -7.4611    4.1796   -3.5655 C   0  0  0  0  0  0  0  0  0  0  0  0
   -8.1762    6.0703   -6.7977 N   0  0  0  0  0  0  0  0  0  0  0  0
   -9.0727    7.0532   -7.0328 C   0  0  0  0  0  0  0  0  0  0  0  0
   -9.7331    7.1530   -8.3827 C   0  0  0  0  0  0  0  0  0  0  0  0
  -10.7037    8.3089   -8.4895 C   0  0  0  0  0  0  0  0  0  0  0  0
  -11.3606    8.2667   -9.8132 C   0  0  0  0  0  0  0  0  0  0  0  0
  -11.9527    6.9332  -10.0327 N   0  0  0  0  0  0  0  0  0  0  0  0
  -13.2421    6.7038  -10.3010 C   0  0  0  0  0  0  0  0  0  0  0  0
  -14.1082    7.7753  -10.3246 C   0  0  0  0  0  0  0  0  0  0  0  0
  -14.9066    8.5714  -10.3781 C   0  0  0  0  0  0  0  0  0  0  0  0
  -15.7899    9.6891  -10.3311 C   0  0  0  0  0  0  0  0  0  0  0  0
  -16.3825    9.7714   -8.9835 N   0  0  0  0  0  0  0  0  0  0  0  0
  -15.4178    9.6348   -7.8850 C   0  0  0  0  0  0  0  0  0  0  0  0
  -17.3554   10.8194   -8.7663 C   0  0  0  0  0  0  0  0  0  0  0  0
  -15.0116   10.9938  -10.6460 C   0  0  0  0  0  0  0  0  0  0  0  0
  -16.8619    9.4561  -11.3906 C   0  0  0  0  0  0  0  0  0  0  0  0
  -13.6584    5.5675  -10.5031 O   0  0  0  0  0  0  0  0  0  0  0  0
  -11.0998    5.7905   -9.9097 C   0  0  0  0  0  0  0  0  0  0  0  0
  -10.5164    5.8566   -8.5626 C   0  0  0  0  0  0  0  0  0  0  0  0
   -9.3875    7.8461   -6.1310 O   0  0  0  0  0  0  0  0  0  0  0  0
   -7.5892    5.1796   -7.8487 C   0  0  0  0  0  0  0  0  0  0  0  0
   -5.4156    6.1273   -5.9971 O   0  0  0  0  0  0  0  0  0  0  0  0
   -5.5391    9.7311   -4.1234 C   0  0  0  0  0  0  0  0  0  0  0  0
   -6.0042   10.2111   -5.4813 C   0  0  0  0  0  0  0  0  0  0  0  0
   -4.7756   10.4276   -6.3308 C   0  0  0  0  0  0  0  0  0  0  0  0
   -5.1696   11.0215   -7.6201 N   0  0  0  0  0  0  0  0  0  0  0  0
   -5.9955   12.2852   -7.4000 C   0  0  0  0  0  0  0  0  0  0  0  0
   -7.1964   11.9613   -6.5670 C   0  0  0  0  0  0  0  0  0  0  0  0
   -6.7591   11.4040   -5.3161 O   0  0  0  0  0  0  0  0  0  0  0  0
   -5.0252    7.7015   -1.8886 O   0  0  0  0  0  0  0  0  0  0  0  0
   -2.1972    7.8492   -1.7016 C   0  0  0  0  0  0  0  0  0  0  0  0
   -1.4238    9.1691   -1.4114 C   0  0  0  0  0  0  0  0  0  0  0  0
   -0.6808    9.6250   -2.6513 C   0  0  0  0  0  0  0  0  0  0  0  0
   -0.6796    9.0684   -5.8780 O   0  0  0  0  0  0  0  0  0  0  0  0
   -1.9640   11.9922   -9.0927 C   0  0  0  0  0  0  0  0  0  0  0  0
   -1.8845   11.1797  -10.2137 C   0  0  0  0  0  0  0  0  0  0  0  0
   -2.9286   10.2434  -10.4656 C   0  0  0  0  0  0  0  0  0  0  0  0
   -3.9912   10.1941   -9.5790 C   0  0  0  0  0  0  0  0  0  0  0  0
   -4.0569   11.0669   -8.4734 C   0  0  0  0  0  0  0  0  0  0  0  0
   -2.9950   11.9429   -8.2367 C   0  0  0  0  0  0  0  0  0  0  0  0
   -8.7543    7.3137   -9.3574 F   0  0  0  0  0  0  0  0  0  0  0  0
  1  2  1  0  0  0  0
  2  3  1  0  0  0  0
  2  5  1  0  0  0  0
  3  4  1  0  0  0  0
  5  6  4  0  0  0  0
  5 10  4  0  0  0  0
  6  7  4  0  0  0  0
  7  8  4  0  0  0  0
  8  9  4  0  0  0  0
  9 10  4  0  0  0  0
 10 11  1  0  0  0  0
 11 12  4  0  0  0  0
 11 15  4  0  0  0  0
 12 13  1  0  0  0  0
 12 68  4  0  0  0  0
 13 14  1  0  0  0  0
 15 16  1  0  0  0  0
 15 67  4  0  0  0  0
 16 17  1  0  0  0  0
 17 18  1  0  0  0  0
 17 19  1  0  0  0  0
 17 20  1  0  0  0  0
 20 21  1  0  0  0  0
 21 22  1  0  0  0  0
 22 23  1  0  0  0  0
 22 66  2  0  0  0  0
 23 24  1  0  0  0  0
 23 65  1  0  0  0  0
 24 25  1  0  0  0  0
 25 26  1  0  0  0  0
 25 63  1  0  0  0  0
 26 27  1  0  0  0  0
 26 62  2  0  0  0  0
 27 28  1  0  0  0  0
 27 55  1  0  0  0  0
 28 29  1  0  0  0  0
 29 30  1  0  0  0  0
 29 54  2  0  0  0  0
 30 31  1  0  0  0  0
 30 34  1  0  0  0  0
 31 32  1  0  0  0  0
 31 33  1  0  0  0  0
 34 35  1  0  0  0  0
 34 53  1  0  0  0  0
 35 36  1  0  0  0  0
 35 52  2  0  0  0  0
 36 37  1  0  0  0  0
 36 51  1  0  0  0  0
 36 73  1  0  0  0  0
 37 38  1  0  0  0  0
 38 39  1  0  0  0  0
 39 40  1  0  0  0  0
 39 50  1  0  0  0  0
 40 41  1  0  0  0  0
 40 49  2  0  0  0  0
 41 42  1  0  0  0  0
 42 43  1  0  0  0  0
 43 44  1  0  0  0  0
 43 47  1  0  0  0  0
 43 48  1  0  0  0  0
 44 45  1  0  0  0  0
 44 46  1  0  0  0  0
 50 51  1  0  0  0  0
 55 56  1  0  0  0  0
 56 57  1  0  0  0  0
 56 61  1  0  0  0  0
 57 58  1  0  0  0  0
 58 59  1  0  0  0  0
 58 71  1  0  0  0  0
 59 60  1  0  0  0  0
 60 61  1  0  0  0  0
 63 64  1  0  0  0  0
 64 65  1  0  0  0  0
 67 68  4  0  0  0  0
 67 72  4  0  0  0  0
 68 69  4  0  0  0  0
 69 70  4  0  0  0  0
 70 71  4  0  0  0  0
 71 72  4  0  0  0  0
M  END
$$$$
