mol_ETKDG3_99
  PyMOL3.1          3D                             0

 73 79  0  0  0  0  0  0  0  0999 V2000
   -0.5857   15.9304  -11.7293 C   0  0  0  0  0  0  0  0  0  0  0  0
   -0.4077   14.4445  -11.9433 C   0  0  0  0  0  0  0  0  0  0  0  0
   -0.5116   14.0161  -13.2671 O   0  0  0  0  0  0  0  0  0  0  0  0
   -1.8102   13.6879  -13.7405 C   0  0  0  0  0  0  0  0  0  0  0  0
    0.8910   13.9639  -11.4258 C   0  0  0  0  0  0  0  0  0  0  0  0
    1.9982   14.5788  -11.8059 N   0  0  0  0  0  0  0  0  0  0  0  0
    3.2009   14.1380  -11.3900 C   0  0  0  0  0  0  0  0  0  0  0  0
    3.3050   13.0405  -10.5274 C   0  0  0  0  0  0  0  0  0  0  0  0
    2.1596   12.4167  -10.1314 C   0  0  0  0  0  0  0  0  0  0  0  0
    0.9613   12.8729  -10.5890 C   0  0  0  0  0  0  0  0  0  0  0  0
   -0.2482   12.2400  -10.1517 C   0  0  0  0  0  0  0  0  0  0  0  0
   -0.8464   11.1939  -10.7894 N   0  0  0  0  0  0  0  0  0  0  0  0
   -0.3744   10.4648  -11.9711 C   0  0  0  0  0  0  0  0  0  0  0  0
    0.3298    9.1788  -11.5347 C   0  0  0  0  0  0  0  0  0  0  0  0
   -1.0235   12.6470   -9.0836 C   0  0  0  0  0  0  0  0  0  0  0  0
   -0.8239   13.7387   -8.0702 C   0  0  0  0  0  0  0  0  0  0  0  0
   -0.1191   13.3027   -6.7445 C   0  0  0  0  0  0  0  0  0  0  0  0
   -0.7839   14.0480   -5.5878 C   0  0  0  0  0  0  0  0  0  0  0  0
    1.3711   13.7068   -6.8017 C   0  0  0  0  0  0  0  0  0  0  0  0
   -0.1201   11.8878   -6.4830 C   0  0  0  0  0  0  0  0  0  0  0  0
   -0.7956   11.3763   -5.2902 O   0  0  0  0  0  0  0  0  0  0  0  0
   -1.0553   10.0028   -5.1045 C   0  0  0  0  0  0  0  0  0  0  0  0
   -1.7633    9.6968   -3.8292 C   0  0  0  0  0  0  0  0  0  0  0  0
   -2.4719    8.4328   -4.0032 N   0  0  0  0  0  0  0  0  0  0  0  0
   -3.1421    8.0097   -2.8793 N   0  0  0  0  0  0  0  0  0  0  0  0
   -4.5035    7.9074   -2.8675 C   0  0  0  0  0  0  0  0  0  0  0  0
   -5.2281    8.2161   -4.1529 C   0  0  0  0  0  0  0  0  0  0  0  0
   -6.4119    7.4015   -4.3406 N   0  0  0  0  0  0  0  0  0  0  0  0
   -6.5239    6.4498   -5.2839 C   0  0  0  0  0  0  0  0  0  0  0  0
   -7.8991    5.8737   -5.3965 C   0  0  0  0  0  0  0  0  0  0  0  0
   -7.9565    4.3578   -5.0498 C   0  0  0  0  0  0  0  0  0  0  0  0
   -9.3649    3.8187   -5.2777 C   0  0  0  0  0  0  0  0  0  0  0  0
   -7.5701    4.1517   -3.5770 C   0  0  0  0  0  0  0  0  0  0  0  0
   -8.4390    6.1552   -6.7147 N   0  0  0  0  0  0  0  0  0  0  0  0
   -9.3327    7.1823   -6.8240 C   0  0  0  0  0  0  0  0  0  0  0  0
  -10.1607    7.3423   -8.0813 C   0  0  0  0  0  0  0  0  0  0  0  0
  -11.1381    8.5176   -7.9743 C   0  0  0  0  0  0  0  0  0  0  0  0
  -12.0535    8.5478   -9.1449 C   0  0  0  0  0  0  0  0  0  0  0  0
  -12.6849    7.2254   -9.3085 N   0  0  0  0  0  0  0  0  0  0  0  0
  -14.0257    6.9729   -9.2639 C   0  0  0  0  0  0  0  0  0  0  0  0
  -14.9700    7.9749   -8.9984 C   0  0  0  0  0  0  0  0  0  0  0  0
  -15.8798    8.6645   -8.8136 C   0  0  0  0  0  0  0  0  0  0  0  0
  -16.9550    9.5712   -8.4988 C   0  0  0  0  0  0  0  0  0  0  0  0
  -16.5898   10.4120   -7.3548 N   0  0  0  0  0  0  0  0  0  0  0  0
  -16.2754    9.6514   -6.1370 C   0  0  0  0  0  0  0  0  0  0  0  0
  -15.5510   11.4198   -7.6657 C   0  0  0  0  0  0  0  0  0  0  0  0
  -18.2115    8.7576   -8.1607 C   0  0  0  0  0  0  0  0  0  0  0  0
  -17.2255   10.4481   -9.7255 C   0  0  0  0  0  0  0  0  0  0  0  0
  -14.4296    5.8292   -9.4463 O   0  0  0  0  0  0  0  0  0  0  0  0
  -11.8118    6.1063   -9.4504 C   0  0  0  0  0  0  0  0  0  0  0  0
  -10.9734    6.0643   -8.2176 C   0  0  0  0  0  0  0  0  0  0  0  0
   -9.5119    7.9569   -5.8775 O   0  0  0  0  0  0  0  0  0  0  0  0
   -7.9645    5.3105   -7.8468 C   0  0  0  0  0  0  0  0  0  0  0  0
   -5.5918    6.1179   -6.0020 O   0  0  0  0  0  0  0  0  0  0  0  0
   -5.6707    9.6997   -4.0984 C   0  0  0  0  0  0  0  0  0  0  0  0
   -6.1379   10.1556   -5.4612 C   0  0  0  0  0  0  0  0  0  0  0  0
   -4.9192   10.3659   -6.3140 C   0  0  0  0  0  0  0  0  0  0  0  0
   -5.3168   10.8887   -7.6283 N   0  0  0  0  0  0  0  0  0  0  0  0
   -6.1578   12.1668   -7.4438 C   0  0  0  0  0  0  0  0  0  0  0  0
   -7.3415   11.8737   -6.6066 C   0  0  0  0  0  0  0  0  0  0  0  0
   -6.9000   11.3514   -5.3319 O   0  0  0  0  0  0  0  0  0  0  0  0
   -5.1361    7.6611   -1.8654 O   0  0  0  0  0  0  0  0  0  0  0  0
   -2.3075    7.7910   -1.7053 C   0  0  0  0  0  0  0  0  0  0  0  0
   -1.5273    9.1065   -1.4126 C   0  0  0  0  0  0  0  0  0  0  0  0
   -0.7884    9.5640   -2.6595 C   0  0  0  0  0  0  0  0  0  0  0  0
   -0.7950    9.0402   -5.8721 O   0  0  0  0  0  0  0  0  0  0  0  0
   -2.1064   11.8058   -9.0993 C   0  0  0  0  0  0  0  0  0  0  0  0
   -1.9743   10.9023  -10.1484 C   0  0  0  0  0  0  0  0  0  0  0  0
   -2.9855    9.9234  -10.3539 C   0  0  0  0  0  0  0  0  0  0  0  0
   -4.0706    9.9209   -9.4953 C   0  0  0  0  0  0  0  0  0  0  0  0
   -4.1895   10.8882   -8.4646 C   0  0  0  0  0  0  0  0  0  0  0  0
   -3.1579   11.7999   -8.2802 C   0  0  0  0  0  0  0  0  0  0  0  0
   -9.3246    7.5411   -9.1748 F   0  0  0  0  0  0  0  0  0  0  0  0
  1  2  1  0  0  0  0
  2  3  1  0  0  0  0
  2  5  1  0  0  0  0
  3  4  1  0  0  0  0
  5  6  4  0  0  0  0
  5 10  4  0  0  0  0
  6  7  4  0  0  0  0
  7  8  4  0  0  0  0
  8  9  4  0  0  0  0
  9 10  4  0  0  0  0
 10 11  1  0  0  0  0
 11 12  4  0  0  0  0
 11 15  4  0  0  0  0
 12 13  1  0  0  0  0
 12 68  4  0  0  0  0
 13 14  1  0  0  0  0
 15 16  1  0  0  0  0
 15 67  4  0  0  0  0
 16 17  1  0  0  0  0
 17 18  1  0  0  0  0
 17 19  1  0  0  0  0
 17 20  1  0  0  0  0
 20 21  1  0  0  0  0
 21 22  1  0  0  0  0
 22 23  1  0  0  0  0
 22 66  2  0  0  0  0
 23 24  1  0  0  0  0
 23 65  1  0  0  0  0
 24 25  1  0  0  0  0
 25 26  1  0  0  0  0
 25 63  1  0  0  0  0
 26 27  1  0  0  0  0
 26 62  2  0  0  0  0
 27 28  1  0  0  0  0
 27 55  1  0  0  0  0
 28 29  1  0  0  0  0
 29 30  1  0  0  0  0
 29 54  2  0  0  0  0
 30 31  1  0  0  0  0
 30 34  1  0  0  0  0
 31 32  1  0  0  0  0
 31 33  1  0  0  0  0
 34 35  1  0  0  0  0
 34 53  1  0  0  0  0
 35 36  1  0  0  0  0
 35 52  2  0  0  0  0
 36 37  1  0  0  0  0
 36 51  1  0  0  0  0
 36 73  1  0  0  0  0
 37 38  1  0  0  0  0
 38 39  1  0  0  0  0
 39 40  1  0  0  0  0
 39 50  1  0  0  0  0
 40 41  1  0  0  0  0
 40 49  2  0  0  0  0
 41 42  1  0  0  0  0
 42 43  1  0  0  0  0
 43 44  1  0  0  0  0
 43 47  1  0  0  0  0
 43 48  1  0  0  0  0
 44 45  1  0  0  0  0
 44 46  1  0  0  0  0
 50 51  1  0  0  0  0
 55 56  1  0  0  0  0
 56 57  1  0  0  0  0
 56 61  1  0  0  0  0
 57 58  1  0  0  0  0
 58 59  1  0  0  0  0
 58 71  1  0  0  0  0
 59 60  1  0  0  0  0
 60 61  1  0  0  0  0
 63 64  1  0  0  0  0
 64 65  1  0  0  0  0
 67 68  4  0  0  0  0
 67 72  4  0  0  0  0
 68 69  4  0  0  0  0
 69 70  4  0  0  0  0
 70 71  4  0  0  0  0
 71 72  4  0  0  0  0
M  END
$$$$
