mol_ETKDG2_64
  PyMOL3.1          3D                             0

 73 79  0  0  0  0  0  0  0  0999 V2000
   -0.3129   16.5017  -11.2547 C   0  0  0  0  0  0  0  0  0  0  0  0
   -0.4467   15.0068  -11.4414 C   0  0  0  0  0  0  0  0  0  0  0  0
   -0.8649   14.6364  -12.7337 O   0  0  0  0  0  0  0  0  0  0  0  0
   -2.2629   14.6333  -12.9846 C   0  0  0  0  0  0  0  0  0  0  0  0
    0.8097   14.2878  -11.1783 C   0  0  0  0  0  0  0  0  0  0  0  0
    1.9599   14.8426  -11.5417 N   0  0  0  0  0  0  0  0  0  0  0  0
    3.1200   14.2040  -11.3459 C   0  0  0  0  0  0  0  0  0  0  0  0
    3.1523   12.9513  -10.7392 C   0  0  0  0  0  0  0  0  0  0  0  0
    1.9796   12.3811  -10.3639 C   0  0  0  0  0  0  0  0  0  0  0  0
    0.8079   13.0452  -10.5985 C   0  0  0  0  0  0  0  0  0  0  0  0
   -0.4282   12.4421  -10.1885 C   0  0  0  0  0  0  0  0  0  0  0  0
   -1.0991   11.5033  -10.9053 N   0  0  0  0  0  0  0  0  0  0  0  0
   -0.7205   10.9118  -12.1948 C   0  0  0  0  0  0  0  0  0  0  0  0
   -0.1008    9.5288  -11.9831 C   0  0  0  0  0  0  0  0  0  0  0  0
   -1.1582   12.7688   -9.0491 C   0  0  0  0  0  0  0  0  0  0  0  0
   -0.8940   13.7679   -7.9655 C   0  0  0  0  0  0  0  0  0  0  0  0
   -0.0781   13.2424   -6.7513 C   0  0  0  0  0  0  0  0  0  0  0  0
   -0.5411   13.9868   -5.4905 C   0  0  0  0  0  0  0  0  0  0  0  0
    1.4310   13.5337   -6.9449 C   0  0  0  0  0  0  0  0  0  0  0  0
   -0.1714   11.8478   -6.5554 C   0  0  0  0  0  0  0  0  0  0  0  0
   -0.7910   11.3369   -5.3441 O   0  0  0  0  0  0  0  0  0  0  0  0
   -1.0246    9.9692   -5.1386 C   0  0  0  0  0  0  0  0  0  0  0  0
   -1.7156    9.6816   -3.8576 C   0  0  0  0  0  0  0  0  0  0  0  0
   -2.4242    8.4295   -4.0185 N   0  0  0  0  0  0  0  0  0  0  0  0
   -3.0837    8.0231   -2.8910 N   0  0  0  0  0  0  0  0  0  0  0  0
   -4.4413    7.9254   -2.8719 C   0  0  0  0  0  0  0  0  0  0  0  0
   -5.1667    8.2272   -4.1566 C   0  0  0  0  0  0  0  0  0  0  0  0
   -6.3292    7.3808   -4.3382 N   0  0  0  0  0  0  0  0  0  0  0  0
   -6.3907    6.4096   -5.2428 C   0  0  0  0  0  0  0  0  0  0  0  0
   -7.7334    5.7866   -5.4015 C   0  0  0  0  0  0  0  0  0  0  0  0
   -7.7828    4.2851   -4.9931 C   0  0  0  0  0  0  0  0  0  0  0  0
   -9.1639    3.7091   -5.2931 C   0  0  0  0  0  0  0  0  0  0  0  0
   -7.4841    4.1414   -3.4930 C   0  0  0  0  0  0  0  0  0  0  0  0
   -8.1609    5.9581   -6.7633 N   0  0  0  0  0  0  0  0  0  0  0  0
   -9.1602    6.8326   -7.0006 C   0  0  0  0  0  0  0  0  0  0  0  0
   -9.8041    6.8509   -8.3624 C   0  0  0  0  0  0  0  0  0  0  0  0
  -11.0537    7.7124   -8.3949 C   0  0  0  0  0  0  0  0  0  0  0  0
  -11.7372    7.5527   -9.7027 C   0  0  0  0  0  0  0  0  0  0  0  0
  -11.9408    6.1193   -9.9830 N   0  0  0  0  0  0  0  0  0  0  0  0
  -13.1242    5.5093  -10.1713 C   0  0  0  0  0  0  0  0  0  0  0  0
  -14.2746    6.2349   -9.9722 C   0  0  0  0  0  0  0  0  0  0  0  0
  -15.2829    6.7193   -9.8140 C   0  0  0  0  0  0  0  0  0  0  0  0
  -16.4605    7.4307   -9.4562 C   0  0  0  0  0  0  0  0  0  0  0  0
  -16.8941    6.9450   -8.1375 N   0  0  0  0  0  0  0  0  0  0  0  0
  -15.8548    7.0302   -7.0975 C   0  0  0  0  0  0  0  0  0  0  0  0
  -18.1957    7.3765   -7.6835 C   0  0  0  0  0  0  0  0  0  0  0  0
  -16.1763    8.9548   -9.3885 C   0  0  0  0  0  0  0  0  0  0  0  0
  -17.5012    7.1329  -10.5346 C   0  0  0  0  0  0  0  0  0  0  0  0
  -13.1827    4.3203  -10.4749 O   0  0  0  0  0  0  0  0  0  0  0  0
  -10.7999    5.2842   -9.9777 C   0  0  0  0  0  0  0  0  0  0  0  0
  -10.2438    5.4252   -8.6199 C   0  0  0  0  0  0  0  0  0  0  0  0
   -9.5638    7.5863   -6.1127 O   0  0  0  0  0  0  0  0  0  0  0  0
   -7.4501    5.1634   -7.8036 C   0  0  0  0  0  0  0  0  0  0  0  0
   -5.4239    6.0865   -5.9264 O   0  0  0  0  0  0  0  0  0  0  0  0
   -5.6478    9.6938   -4.0930 C   0  0  0  0  0  0  0  0  0  0  0  0
   -6.1631   10.1333   -5.4466 C   0  0  0  0  0  0  0  0  0  0  0  0
   -4.9824   10.4125   -6.3165 C   0  0  0  0  0  0  0  0  0  0  0  0
   -5.4371   10.9528   -7.6098 N   0  0  0  0  0  0  0  0  0  0  0  0
   -6.3156   12.1762   -7.3919 C   0  0  0  0  0  0  0  0  0  0  0  0
   -7.4874   11.7982   -6.5271 C   0  0  0  0  0  0  0  0  0  0  0  0
   -6.9897   11.2863   -5.2793 O   0  0  0  0  0  0  0  0  0  0  0  0
   -5.0637    7.6787   -1.8704 O   0  0  0  0  0  0  0  0  0  0  0  0
   -2.2415    7.8131   -1.7160 C   0  0  0  0  0  0  0  0  0  0  0  0
   -1.4594    9.1263   -1.4421 C   0  0  0  0  0  0  0  0  0  0  0  0
   -0.7269    9.5647   -2.6938 C   0  0  0  0  0  0  0  0  0  0  0  0
   -0.7499    8.9966   -5.8889 O   0  0  0  0  0  0  0  0  0  0  0  0
   -2.2691   11.9676   -9.1036 C   0  0  0  0  0  0  0  0  0  0  0  0
   -2.2070   11.1849  -10.2465 C   0  0  0  0  0  0  0  0  0  0  0  0
   -3.2596   10.2672  -10.5155 C   0  0  0  0  0  0  0  0  0  0  0  0
   -4.3114   10.1976   -9.6227 C   0  0  0  0  0  0  0  0  0  0  0  0
   -4.3569   11.0358   -8.4781 C   0  0  0  0  0  0  0  0  0  0  0  0
   -3.3034   11.9062   -8.2319 C   0  0  0  0  0  0  0  0  0  0  0  0
   -8.8879    7.3037   -9.3020 F   0  0  0  0  0  0  0  0  0  0  0  0
  1  2  1  0  0  0  0
  2  3  1  0  0  0  0
  2  5  1  0  0  0  0
  3  4  1  0  0  0  0
  5  6  4  0  0  0  0
  5 10  4  0  0  0  0
  6  7  4  0  0  0  0
  7  8  4  0  0  0  0
  8  9  4  0  0  0  0
  9 10  4  0  0  0  0
 10 11  1  0  0  0  0
 11 12  4  0  0  0  0
 11 15  4  0  0  0  0
 12 13  1  0  0  0  0
 12 68  4  0  0  0  0
 13 14  1  0  0  0  0
 15 16  1  0  0  0  0
 15 67  4  0  0  0  0
 16 17  1  0  0  0  0
 17 18  1  0  0  0  0
 17 19  1  0  0  0  0
 17 20  1  0  0  0  0
 20 21  1  0  0  0  0
 21 22  1  0  0  0  0
 22 23  1  0  0  0  0
 22 66  2  0  0  0  0
 23 24  1  0  0  0  0
 23 65  1  0  0  0  0
 24 25  1  0  0  0  0
 25 26  1  0  0  0  0
 25 63  1  0  0  0  0
 26 27  1  0  0  0  0
 26 62  2  0  0  0  0
 27 28  1  0  0  0  0
 27 55  1  0  0  0  0
 28 29  1  0  0  0  0
 29 30  1  0  0  0  0
 29 54  2  0  0  0  0
 30 31  1  0  0  0  0
 30 34  1  0  0  0  0
 31 32  1  0  0  0  0
 31 33  1  0  0  0  0
 34 35  1  0  0  0  0
 34 53  1  0  0  0  0
 35 36  1  0  0  0  0
 35 52  2  0  0  0  0
 36 37  1  0  0  0  0
 36 51  1  0  0  0  0
 36 73  1  0  0  0  0
 37 38  1  0  0  0  0
 38 39  1  0  0  0  0
 39 40  1  0  0  0  0
 39 50  1  0  0  0  0
 40 41  1  0  0  0  0
 40 49  2  0  0  0  0
 41 42  1  0  0  0  0
 42 43  1  0  0  0  0
 43 44  1  0  0  0  0
 43 47  1  0  0  0  0
 43 48  1  0  0  0  0
 44 45  1  0  0  0  0
 44 46  1  0  0  0  0
 50 51  1  0  0  0  0
 55 56  1  0  0  0  0
 56 57  1  0  0  0  0
 56 61  1  0  0  0  0
 57 58  1  0  0  0  0
 58 59  1  0  0  0  0
 58 71  1  0  0  0  0
 59 60  1  0  0  0  0
 60 61  1  0  0  0  0
 63 64  1  0  0  0  0
 64 65  1  0  0  0  0
 67 68  4  0  0  0  0
 67 72  4  0  0  0  0
 68 69  4  0  0  0  0
 69 70  4  0  0  0  0
 70 71  4  0  0  0  0
 71 72  4  0  0  0  0
M  END
$$$$
