mol_bioactive_4
  PyMOL3.1          3D                             0

 73 79  0  0  0  0  0  0  0  0999 V2000
   -0.0771   14.9890  -13.2245 C   0  0  0  0  0  0  0  0  0  0  0  0
   -0.0620   14.8151  -11.7194 C   0  0  0  0  0  0  0  0  0  0  0  0
   -0.2299   15.9887  -10.9958 O   0  0  0  0  0  0  0  0  0  0  0  0
   -1.5476   16.4423  -10.7433 C   0  0  0  0  0  0  0  0  0  0  0  0
    1.2046   14.2171  -11.2595 C   0  0  0  0  0  0  0  0  0  0  0  0
    2.3402   14.7704  -11.6519 N   0  0  0  0  0  0  0  0  0  0  0  0
    3.5157   14.2585  -11.2510 C   0  0  0  0  0  0  0  0  0  0  0  0
    3.5643   13.1236  -10.4372 C   0  0  0  0  0  0  0  0  0  0  0  0
    2.3984   12.5492  -10.0487 C   0  0  0  0  0  0  0  0  0  0  0  0
    1.2162   13.0964  -10.4560 C   0  0  0  0  0  0  0  0  0  0  0  0
   -0.0187   12.5152  -10.0133 C   0  0  0  0  0  0  0  0  0  0  0  0
   -0.6714   11.5396  -10.6912 N   0  0  0  0  0  0  0  0  0  0  0  0
   -0.2567   10.8739  -11.9296 C   0  0  0  0  0  0  0  0  0  0  0  0
    0.3594    9.5098  -11.6245 C   0  0  0  0  0  0  0  0  0  0  0  0
   -0.7546   12.8920   -8.9080 C   0  0  0  0  0  0  0  0  0  0  0  0
   -0.4745   13.9054   -7.8604 C   0  0  0  0  0  0  0  0  0  0  0  0
    0.2234   13.3738   -6.5723 C   0  0  0  0  0  0  0  0  0  0  0  0
   -0.3949   14.0898   -5.3765 C   0  0  0  0  0  0  0  0  0  0  0  0
    1.7309   13.7013   -6.6119 C   0  0  0  0  0  0  0  0  0  0  0  0
    0.1537   11.9511   -6.3861 C   0  0  0  0  0  0  0  0  0  0  0  0
   -0.5367   11.4111   -5.2196 O   0  0  0  0  0  0  0  0  0  0  0  0
   -0.8716   10.0537   -5.0899 C   0  0  0  0  0  0  0  0  0  0  0  0
   -1.5912    9.7346   -3.8180 C   0  0  0  0  0  0  0  0  0  0  0  0
   -2.3329    8.5017   -4.0147 N   0  0  0  0  0  0  0  0  0  0  0  0
   -3.0129    8.0606   -2.9026 N   0  0  0  0  0  0  0  0  0  0  0  0
   -4.3757    7.9915   -2.8913 C   0  0  0  0  0  0  0  0  0  0  0  0
   -5.1046    8.4177   -4.1421 C   0  0  0  0  0  0  0  0  0  0  0  0
   -6.3000    7.6210   -4.3969 N   0  0  0  0  0  0  0  0  0  0  0  0
   -6.3803    6.6152   -5.2824 C   0  0  0  0  0  0  0  0  0  0  0  0
   -7.7516    6.0308   -5.4217 C   0  0  0  0  0  0  0  0  0  0  0  0
   -7.8364    4.5162   -5.0726 C   0  0  0  0  0  0  0  0  0  0  0  0
   -9.2582    4.0116   -5.2974 C   0  0  0  0  0  0  0  0  0  0  0  0
   -7.4435    4.2937   -3.6106 C   0  0  0  0  0  0  0  0  0  0  0  0
   -8.2493    6.2864   -6.7469 N   0  0  0  0  0  0  0  0  0  0  0  0
   -9.1548    7.2846   -6.9055 C   0  0  0  0  0  0  0  0  0  0  0  0
   -9.8899    7.4201   -8.2111 C   0  0  0  0  0  0  0  0  0  0  0  0
  -10.7504    8.6645   -8.2697 C   0  0  0  0  0  0  0  0  0  0  0  0
  -11.5177    8.6569   -9.5340 C   0  0  0  0  0  0  0  0  0  0  0  0
  -12.2652    7.3948   -9.6553 N   0  0  0  0  0  0  0  0  0  0  0  0
  -13.6038    7.3218   -9.7809 C   0  0  0  0  0  0  0  0  0  0  0  0
  -14.3326    8.5018   -9.7141 C   0  0  0  0  0  0  0  0  0  0  0  0
  -15.0407    9.3711   -9.6928 C   0  0  0  0  0  0  0  0  0  0  0  0
  -15.7735   10.6044   -9.5591 C   0  0  0  0  0  0  0  0  0  0  0  0
  -16.8488   10.4137   -8.5635 N   0  0  0  0  0  0  0  0  0  0  0  0
  -16.3479   10.0665   -7.2174 C   0  0  0  0  0  0  0  0  0  0  0  0
  -17.9001    9.4730   -8.9924 C   0  0  0  0  0  0  0  0  0  0  0  0
  -14.8322   11.7401   -9.0988 C   0  0  0  0  0  0  0  0  0  0  0  0
  -16.3470   10.9451  -10.9405 C   0  0  0  0  0  0  0  0  0  0  0  0
  -14.1618    6.2486   -9.9319 O   0  0  0  0  0  0  0  0  0  0  0  0
  -11.5160    6.1697   -9.5865 C   0  0  0  0  0  0  0  0  0  0  0  0
  -10.7870    6.1916   -8.2975 C   0  0  0  0  0  0  0  0  0  0  0  0
   -9.4233    8.0472   -5.9661 O   0  0  0  0  0  0  0  0  0  0  0  0
   -7.7154    5.4367   -7.8496 C   0  0  0  0  0  0  0  0  0  0  0  0
   -5.4294    6.2466   -5.9553 O   0  0  0  0  0  0  0  0  0  0  0  0
   -5.4844    9.9085   -3.9192 C   0  0  0  0  0  0  0  0  0  0  0  0
   -5.5308   10.8126   -5.1157 C   0  0  0  0  0  0  0  0  0  0  0  0
   -4.9102   10.2688   -6.3872 C   0  0  0  0  0  0  0  0  0  0  0  0
   -5.1644   11.1472   -7.5188 N   0  0  0  0  0  0  0  0  0  0  0  0
   -5.9066   12.4321   -7.2146 C   0  0  0  0  0  0  0  0  0  0  0  0
   -7.0395   12.2085   -6.3371 C   0  0  0  0  0  0  0  0  0  0  0  0
   -6.8849   11.1644   -5.3703 O   0  0  0  0  0  0  0  0  0  0  0  0
   -5.0078    7.7094   -1.9001 O   0  0  0  0  0  0  0  0  0  0  0  0
   -2.1796    7.8144   -1.7260 C   0  0  0  0  0  0  0  0  0  0  0  0
   -1.3730    9.1032   -1.4196 C   0  0  0  0  0  0  0  0  0  0  0  0
   -0.6277    9.5656   -2.6441 C   0  0  0  0  0  0  0  0  0  0  0  0
   -0.6637    9.1187   -5.9033 O   0  0  0  0  0  0  0  0  0  0  0  0
   -1.8723   12.0971   -8.9449 C   0  0  0  0  0  0  0  0  0  0  0  0
   -1.7927   11.2576  -10.0451 C   0  0  0  0  0  0  0  0  0  0  0  0
   -2.8419   10.3365  -10.2916 C   0  0  0  0  0  0  0  0  0  0  0  0
   -3.9223   10.3078   -9.4150 C   0  0  0  0  0  0  0  0  0  0  0  0
   -4.0003   11.1983   -8.3337 C   0  0  0  0  0  0  0  0  0  0  0  0
   -2.9204   12.0771   -8.1037 C   0  0  0  0  0  0  0  0  0  0  0  0
   -8.9887    7.4777   -9.2604 F   0  0  0  0  0  0  0  0  0  0  0  0
  1  2  1  0  0  0  0
  2  3  1  0  0  0  0
  2  5  1  0  0  0  0
  3  4  1  0  0  0  0
  5  6  4  0  0  0  0
  5 10  4  0  0  0  0
  6  7  4  0  0  0  0
  7  8  4  0  0  0  0
  8  9  4  0  0  0  0
  9 10  4  0  0  0  0
 10 11  1  0  0  0  0
 11 12  4  0  0  0  0
 11 15  4  0  0  0  0
 12 13  1  0  0  0  0
 12 68  4  0  0  0  0
 13 14  1  0  0  0  0
 15 16  1  0  0  0  0
 15 67  4  0  0  0  0
 16 17  1  0  0  0  0
 17 18  1  0  0  0  0
 17 19  1  0  0  0  0
 17 20  1  0  0  0  0
 20 21  1  0  0  0  0
 21 22  1  0  0  0  0
 22 23  1  0  0  0  0
 22 66  2  0  0  0  0
 23 24  1  0  0  0  0
 23 65  1  0  0  0  0
 24 25  1  0  0  0  0
 25 26  1  0  0  0  0
 25 63  1  0  0  0  0
 26 27  1  0  0  0  0
 26 62  2  0  0  0  0
 27 28  1  0  0  0  0
 27 55  1  0  0  0  0
 28 29  1  0  0  0  0
 29 30  1  0  0  0  0
 29 54  2  0  0  0  0
 30 31  1  0  0  0  0
 30 34  1  0  0  0  0
 31 32  1  0  0  0  0
 31 33  1  0  0  0  0
 34 35  1  0  0  0  0
 34 53  1  0  0  0  0
 35 36  1  0  0  0  0
 35 52  2  0  0  0  0
 36 37  1  0  0  0  0
 36 51  1  0  0  0  0
 36 73  1  0  0  0  0
 37 38  1  0  0  0  0
 38 39  1  0  0  0  0
 39 40  1  0  0  0  0
 39 50  1  0  0  0  0
 40 41  1  0  0  0  0
 40 49  2  0  0  0  0
 41 42  1  0  0  0  0
 42 43  1  0  0  0  0
 43 44  1  0  0  0  0
 43 47  1  0  0  0  0
 43 48  1  0  0  0  0
 44 45  1  0  0  0  0
 44 46  1  0  0  0  0
 50 51  1  0  0  0  0
 55 56  1  0  0  0  0
 56 57  1  0  0  0  0
 56 61  1  0  0  0  0
 57 58  1  0  0  0  0
 58 59  1  0  0  0  0
 58 71  1  0  0  0  0
 59 60  1  0  0  0  0
 60 61  1  0  0  0  0
 63 64  1  0  0  0  0
 64 65  1  0  0  0  0
 67 68  4  0  0  0  0
 67 72  4  0  0  0  0
 68 69  4  0  0  0  0
 69 70  4  0  0  0  0
 70 71  4  0  0  0  0
 71 72  4  0  0  0  0
M  END
$$$$
