mol_ETKDG4_21
     RDKit          3D

151157  0  0  0  0  0  0  0  0999 V2000
    1.8365    7.2227   -7.9799 C   0  0  0  0  0  0  0  0  0  0  0  0
    1.8289    5.7373   -7.6044 C   0  0  2  0  0  0  0  0  0  0  0  0
    3.0678    5.1307   -7.9969 O   0  0  0  0  0  0  0  0  0  0  0  0
    4.0975    5.2969   -7.0324 C   0  0  0  0  0  0  0  0  0  0  0  0
    0.6796    4.9882   -8.2754 C   0  0  0  0  0  0  0  0  0  0  0  0
    0.2943    5.4270   -9.5119 N   0  0  0  0  0  0  0  0  0  0  0  0
   -0.7148    4.7849  -10.1342 C   0  0  0  0  0  0  0  0  0  0  0  0
   -1.3977    3.7185   -9.5825 C   0  0  0  0  0  0  0  0  0  0  0  0
   -1.0092    3.2755   -8.3243 C   0  0  0  0  0  0  0  0  0  0  0  0
    0.0520    3.8946   -7.6524 C   0  0  0  0  0  0  0  0  0  0  0  0
    0.4359    3.3988   -6.3252 C   0  0  0  0  0  0  0  0  0  0  0  0
   -0.2027    3.7868   -5.1643 N   0  0  0  0  0  0  0  0  0  0  0  0
   -1.3428    4.6927   -5.0814 C   0  0  0  0  0  0  0  0  0  0  0  0
   -2.6619    3.9533   -4.9387 C   0  0  0  0  0  0  0  0  0  0  0  0
    1.4667    2.5262   -5.9686 C   0  0  0  0  0  0  0  0  0  0  0  0
    2.4251    1.8531   -6.9263 C   0  0  0  0  0  0  0  0  0  0  0  0
    2.0926    0.3932   -7.3602 C   0  0  0  0  0  0  0  0  0  0  0  0
    0.6382    0.2298   -7.8279 C   0  0  0  0  0  0  0  0  0  0  0  0
    3.0111    0.0450   -8.5567 C   0  0  0  0  0  0  0  0  0  0  0  0
    2.3569   -0.6163   -6.2243 C   0  0  0  0  0  0  0  0  0  0  0  0
    3.7463   -0.5789   -5.8712 O   0  0  0  0  0  0  0  0  0  0  0  0
    4.1053   -1.3980   -4.8461 C   0  0  0  0  0  0  0  0  0  0  0  0
    5.5875   -1.1980   -4.5211 C   0  0  1  0  0  0  0  0  0  0  0  0
    5.9958   -2.1511   -3.4812 N   0  0  0  0  0  0  0  0  0  0  0  0
    7.3054   -1.8781   -3.0404 N   0  0  0  0  0  0  0  0  0  0  0  0
    7.6732   -1.7142   -1.7010 C   0  0  0  0  0  0  0  0  0  0  0  0
    6.5565   -1.3937   -0.6741 C   0  0  1  0  0  0  0  0  0  0  0  0
    6.8868   -2.0619    0.5790 N   0  0  0  0  0  0  0  0  0  0  0  0
    6.7527   -3.4293    0.6957 C   0  0  0  0  0  0  0  0  0  0  0  0
    7.2083   -3.9965    2.0589 C   0  0  2  0  0  0  0  0  0  0  0  0
    7.6952   -5.4647    1.9447 C   0  0  0  0  0  0  0  0  0  0  0  0
    7.9538   -6.0798    3.3237 C   0  0  0  0  0  0  0  0  0  0  0  0
    8.9881   -5.5349    1.1181 C   0  0  0  0  0  0  0  0  0  0  0  0
    6.0828   -3.7997    3.0090 N   0  0  0  0  0  0  0  0  0  0  0  0
    6.0773   -2.5923    3.7223 C   0  0  0  0  0  0  0  0  0  0  0  0
    4.9118   -2.3089    4.6977 C   0  0  0  0  0  0  0  0  0  0  0  0
    5.0068   -3.2468    5.9146 C   0  0  0  0  0  0  0  0  0  0  0  0
    3.9122   -2.9206    6.9255 C   0  0  0  0  0  0  0  0  0  0  0  0
    3.9980   -1.5170    7.2967 N   0  0  0  0  0  0  0  0  0  0  0  0
    4.4650   -1.1813    8.5629 C   0  0  0  0  0  0  0  0  0  0  0  0
    4.7831    0.2023    8.8350 C   0  0  0  0  0  0  0  0  0  0  0  0
    5.0886    1.3445    9.0558 C   0  0  0  0  0  0  0  0  0  0  0  0
    5.5179    2.7413    9.3247 C   0  0  0  0  0  0  0  0  0  0  0  0
    6.7002    3.0361    8.4730 N   0  0  0  0  0  0  0  0  0  0  0  0
    6.4045    3.1145    7.0395 C   0  0  0  0  0  0  0  0  0  0  0  0
    7.4748    4.2105    8.8750 C   0  0  0  0  0  0  0  0  0  0  0  0
    4.3196    3.6816    9.0737 C   0  0  0  0  0  0  0  0  0  0  0  0
    5.8626    2.8040   10.8325 C   0  0  0  0  0  0  0  0  0  0  0  0
    4.6336   -1.9944    9.4626 O   0  0  0  0  0  0  0  0  0  0  0  0
    3.8575   -0.5780    6.1888 C   0  0  0  0  0  0  0  0  0  0  0  0
    4.9390   -0.8379    5.1482 C   0  0  0  0  0  0  0  0  0  0  0  0
    7.0177   -1.7932    3.6218 O   0  0  0  0  0  0  0  0  0  0  0  0
    4.8343   -4.5015    2.7083 C   0  0  0  0  0  0  0  0  0  0  0  0
    6.2277   -4.1175   -0.1790 O   0  0  0  0  0  0  0  0  0  0  0  0
    6.4819    0.1364   -0.5103 C   0  0  0  0  0  0  0  0  0  0  0  0
    5.0751    0.6943   -0.2405 C   0  0  1  0  0  0  0  0  0  0  0  0
    4.2421    0.8455   -1.5412 C   0  0  0  0  0  0  0  0  0  0  0  0
    2.9169    1.3919   -1.1995 N   0  0  0  0  0  0  0  0  0  0  0  0
    2.2225    0.5394   -0.2022 C   0  0  0  0  0  0  0  0  0  0  0  0
    3.1109    0.3873    1.0434 C   0  0  0  0  0  0  0  0  0  0  0  0
    4.4057   -0.1413    0.7198 O   0  0  0  0  0  0  0  0  0  0  0  0
    8.8588   -1.7213   -1.3470 O   0  0  0  0  0  0  0  0  0  0  0  0
    8.3201   -2.1080   -4.0734 C   0  0  0  0  0  0  0  0  0  0  0  0
    7.9812   -1.2981   -5.3307 C   0  0  0  0  0  0  0  0  0  0  0  0
    6.5032   -1.4313   -5.7308 C   0  0  0  0  0  0  0  0  0  0  0  0
    3.3337   -2.1006   -4.2084 O   0  0  0  0  0  0  0  0  0  0  0  0
    1.4963    2.4756   -4.5286 C   0  0  0  0  0  0  0  0  0  0  0  0
    0.4343    3.2496   -4.0639 C   0  0  0  0  0  0  0  0  0  0  0  0
    0.1699    3.3979   -2.6972 C   0  0  0  0  0  0  0  0  0  0  0  0
    1.0151    2.7544   -1.7879 C   0  0  0  0  0  0  0  0  0  0  0  0
    2.1042    1.9665   -2.1824 C   0  0  0  0  0  0  0  0  0  0  0  0
    2.3402    1.8526   -3.5661 C   0  0  0  0  0  0  0  0  0  0  0  0
    3.6939   -2.5084    4.0979 F   0  0  0  0  0  0  0  0  0  0  0  0
    0.8763    7.6962   -7.7455 H   0  0  0  0  0  0  0  0  0  0  0  0
    2.6189    7.7594   -7.4352 H   0  0  0  0  0  0  0  0  0  0  0  0
    2.0473    7.3675   -9.0467 H   0  0  0  0  0  0  0  0  0  0  0  0
    1.7061    5.6804   -6.5167 H   0  0  0  0  0  0  0  0  0  0  0  0
    3.8104    4.8432   -6.0781 H   0  0  0  0  0  0  0  0  0  0  0  0
    4.9933    4.7874   -7.4010 H   0  0  0  0  0  0  0  0  0  0  0  0
    4.3375    6.3548   -6.8905 H   0  0  0  0  0  0  0  0  0  0  0  0
   -0.9698    5.1659  -11.1180 H   0  0  0  0  0  0  0  0  0  0  0  0
   -2.2035    3.2375  -10.1225 H   0  0  0  0  0  0  0  0  0  0  0  0
   -1.5290    2.4351   -7.8712 H   0  0  0  0  0  0  0  0  0  0  0  0
   -1.1790    5.3599   -4.2268 H   0  0  0  0  0  0  0  0  0  0  0  0
   -1.3558    5.3301   -5.9703 H   0  0  0  0  0  0  0  0  0  0  0  0
   -2.6878    3.3602   -4.0189 H   0  0  0  0  0  0  0  0  0  0  0  0
   -3.4931    4.6664   -4.9041 H   0  0  0  0  0  0  0  0  0  0  0  0
   -2.8318    3.2727   -5.7781 H   0  0  0  0  0  0  0  0  0  0  0  0
    2.4861    2.4733   -7.8303 H   0  0  0  0  0  0  0  0  0  0  0  0
    3.4325    1.8942   -6.4924 H   0  0  0  0  0  0  0  0  0  0  0  0
   -0.0745    0.4361   -7.0230 H   0  0  0  0  0  0  0  0  0  0  0  0
    0.4210    0.8921   -8.6713 H   0  0  0  0  0  0  0  0  0  0  0  0
    0.4467   -0.7953   -8.1699 H   0  0  0  0  0  0  0  0  0  0  0  0
    4.0733    0.1448   -8.3001 H   0  0  0  0  0  0  0  0  0  0  0  0
    2.8459   -0.9846   -8.8972 H   0  0  0  0  0  0  0  0  0  0  0  0
    2.8165    0.7084   -9.4083 H   0  0  0  0  0  0  0  0  0  0  0  0
    1.7383   -0.3887   -5.3500 H   0  0  0  0  0  0  0  0  0  0  0  0
    2.1122   -1.6318   -6.5596 H   0  0  0  0  0  0  0  0  0  0  0  0
    5.6923   -0.1729   -4.1427 H   0  0  0  0  0  0  0  0  0  0  0  0
    5.2884   -2.2783   -2.7571 H   0  0  0  0  0  0  0  0  0  0  0  0
    5.5956   -1.7971   -0.9940 H   0  0  0  0  0  0  0  0  0  0  0  0
    7.4247   -1.5688    1.2883 H   0  0  0  0  0  0  0  0  0  0  0  0
    8.0682   -3.4040    2.3968 H   0  0  0  0  0  0  0  0  0  0  0  0
    6.9460   -6.0765    1.4306 H   0  0  0  0  0  0  0  0  0  0  0  0
    7.0293   -6.1586    3.9053 H   0  0  0  0  0  0  0  0  0  0  0  0
    8.3634   -7.0914    3.2278 H   0  0  0  0  0  0  0  0  0  0  0  0
    8.6674   -5.4795    3.8984 H   0  0  0  0  0  0  0  0  0  0  0  0
    9.3437   -6.5690    1.0409 H   0  0  0  0  0  0  0  0  0  0  0  0
    8.8311   -5.1651    0.0993 H   0  0  0  0  0  0  0  0  0  0  0  0
    9.7857   -4.9394    1.5762 H   0  0  0  0  0  0  0  0  0  0  0  0
    4.9109   -4.2967    5.6200 H   0  0  0  0  0  0  0  0  0  0  0  0
    5.9919   -3.1371    6.3871 H   0  0  0  0  0  0  0  0  0  0  0  0
    2.9192   -3.0951    6.4939 H   0  0  0  0  0  0  0  0  0  0  0  0
    4.0076   -3.5702    7.8006 H   0  0  0  0  0  0  0  0  0  0  0  0
    5.8504    2.2408    6.6830 H   0  0  0  0  0  0  0  0  0  0  0  0
    5.8375    4.0155    6.7802 H   0  0  0  0  0  0  0  0  0  0  0  0
    7.3382    3.1326    6.4645 H   0  0  0  0  0  0  0  0  0  0  0  0
    7.9103    4.0839    9.8720 H   0  0  0  0  0  0  0  0  0  0  0  0
    8.3293    4.3531    8.2011 H   0  0  0  0  0  0  0  0  0  0  0  0
    6.8774    5.1296    8.8600 H   0  0  0  0  0  0  0  0  0  0  0  0
    3.4699    3.4179    9.7178 H   0  0  0  0  0  0  0  0  0  0  0  0
    4.5733    4.7259    9.2809 H   0  0  0  0  0  0  0  0  0  0  0  0
    3.9506    3.6180    8.0438 H   0  0  0  0  0  0  0  0  0  0  0  0
    5.0262    2.4449   11.4482 H   0  0  0  0  0  0  0  0  0  0  0  0
    6.7281    2.1708   11.0725 H   0  0  0  0  0  0  0  0  0  0  0  0
    6.0829    3.8271   11.1614 H   0  0  0  0  0  0  0  0  0  0  0  0
    2.8621   -0.7271    5.7549 H   0  0  0  0  0  0  0  0  0  0  0  0
    3.9033    0.4602    6.5263 H   0  0  0  0  0  0  0  0  0  0  0  0
    5.9184   -0.5847    5.5751 H   0  0  0  0  0  0  0  0  0  0  0  0
    4.7736   -0.1811    4.2861 H   0  0  0  0  0  0  0  0  0  0  0  0
    4.2262   -4.6305    3.6023 H   0  0  0  0  0  0  0  0  0  0  0  0
    4.2661   -3.9192    1.9769 H   0  0  0  0  0  0  0  0  0  0  0  0
    5.0349   -5.4983    2.3091 H   0  0  0  0  0  0  0  0  0  0  0  0
    7.1220    0.4290    0.3327 H   0  0  0  0  0  0  0  0  0  0  0  0
    6.8933    0.6482   -1.3894 H   0  0  0  0  0  0  0  0  0  0  0  0
    5.1967    1.6902    0.2072 H   0  0  0  0  0  0  0  0  0  0  0  0
    4.7752    1.5179   -2.2230 H   0  0  0  0  0  0  0  0  0  0  0  0
    4.1177   -0.1298   -2.0261 H   0  0  0  0  0  0  0  0  0  0  0  0
    1.2582    0.9488    0.1127 H   0  0  0  0  0  0  0  0  0  0  0  0
    2.0410   -0.4470   -0.6469 H   0  0  0  0  0  0  0  0  0  0  0  0
    3.2398    1.3505    1.5512 H   0  0  0  0  0  0  0  0  0  0  0  0
    2.6432   -0.3029    1.7524 H   0  0  0  0  0  0  0  0  0  0  0  0
    9.3152   -1.8316   -3.7100 H   0  0  0  0  0  0  0  0  0  0  0  0
    8.3312   -3.1818   -4.2949 H   0  0  0  0  0  0  0  0  0  0  0  0
    8.1892   -0.2382   -5.1335 H   0  0  0  0  0  0  0  0  0  0  0  0
    8.6268   -1.6044   -6.1619 H   0  0  0  0  0  0  0  0  0  0  0  0
    6.3257   -2.4303   -6.1502 H   0  0  0  0  0  0  0  0  0  0  0  0
    6.2785   -0.7132   -6.5279 H   0  0  0  0  0  0  0  0  0  0  0  0
   -0.6507    4.0069   -2.3363 H   0  0  0  0  0  0  0  0  0  0  0  0
    0.8262    2.9212   -0.7297 H   0  0  0  0  0  0  0  0  0  0  0  0
    3.1771    1.2733   -3.9311 H   0  0  0  0  0  0  0  0  0  0  0  0
  1  2  1  0
  2  3  1  0
  2  5  1  0
  3  4  1  0
  5  6  2  0
  5 10  1  0
  6  7  1  0
  7  8  2  0
  8  9  1  0
  9 10  2  0
 10 11  1  0
 11 12  1  0
 11 15  2  0
 12 13  1  0
 12 68  1  0
 13 14  1  0
 15 16  1  0
 15 67  1  0
 16 17  1  0
 17 18  1  0
 17 19  1  0
 17 20  1  0
 20 21  1  0
 21 22  1  0
 22 23  1  0
 22 66  2  0
 23 24  1  0
 23 65  1  0
 24 25  1  0
 25 26  1  0
 25 63  1  0
 26 27  1  0
 26 62  2  0
 27 28  1  0
 27 55  1  0
 28 29  1  0
 29 30  1  0
 29 54  2  0
 30 31  1  0
 30 34  1  0
 31 32  1  0
 31 33  1  0
 34 35  1  0
 34 53  1  0
 35 36  1  0
 35 52  2  0
 36 37  1  0
 36 51  1  0
 36 73  1  0
 37 38  1  0
 38 39  1  0
 39 40  1  0
 39 50  1  0
 40 41  1  0
 40 49  2  0
 42 43  1  0
 43 44  1  0
 43 47  1  0
 43 48  1  0
 44 45  1  0
 44 46  1  0
 50 51  1  0
 55 56  1  0
 56 57  1  0
 56 61  1  0
 57 58  1  0
 58 59  1  0
 58 71  1  0
 59 60  1  0
 60 61  1  0
 63 64  1  0
 64 65  1  0
 67 68  2  0
 67 72  1  0
 68 69  1  0
 69 70  2  0
 70 71  1  0
 71 72  2  0
  1 74  1  0
  1 75  1  0
  1 76  1  0
  2 77  1  1
  4 78  1  0
  4 79  1  0
  4 80  1  0
  7 81  1  0
  8 82  1  0
  9 83  1  0
 13 84  1  0
 13 85  1  0
 14 86  1  0
 14 87  1  0
 14 88  1  0
 16 89  1  0
 16 90  1  0
 18 91  1  0
 18 92  1  0
 18 93  1  0
 19 94  1  0
 19 95  1  0
 19 96  1  0
 20 97  1  0
 20 98  1  0
 23 99  1  1
 24100  1  0
 27101  1  6
 28102  1  0
 30103  1  1
 31104  1  0
 32105  1  0
 32106  1  0
 32107  1  0
 33108  1  0
 33109  1  0
 33110  1  0
 37111  1  0
 37112  1  0
 38113  1  0
 38114  1  0
 45115  1  0
 45116  1  0
 45117  1  0
 46118  1  0
 46119  1  0
 46120  1  0
 47121  1  0
 47122  1  0
 47123  1  0
 48124  1  0
 48125  1  0
 48126  1  0
 50127  1  0
 50128  1  0
 51129  1  0
 51130  1  0
 53131  1  0
 53132  1  0
 53133  1  0
 55134  1  0
 55135  1  0
 56136  1  1
 57137  1  0
 57138  1  0
 59139  1  0
 59140  1  0
 60141  1  0
 60142  1  0
 63143  1  0
 63144  1  0
 64145  1  0
 64146  1  0
 65147  1  0
 65148  1  0
 69149  1  0
 70150  1  0
 72151  1  0
 41 42  3  0
M  END
$$$$
