mol_bioactive_47
     RDKit          3D

151157  0  0  0  0  0  0  0  0999 V2000
    3.4784   -0.0991    5.9692 C   0  0  0  0  0  0  0  0  0  0  0  0
    3.9090   -1.3199    5.1595 C   0  0  2  0  0  0  0  0  0  0  0  0
    3.4169   -1.2587    3.8154 O   0  0  0  0  0  0  0  0  0  0  0  0
    4.1785   -0.4116    2.9699 C   0  0  0  0  0  0  0  0  0  0  0  0
    3.5094   -2.6189    5.8519 C   0  0  0  0  0  0  0  0  0  0  0  0
    4.5581   -3.2695    6.4478 N   0  0  0  0  0  0  0  0  0  0  0  0
    4.3083   -4.4098    7.1242 C   0  0  0  0  0  0  0  0  0  0  0  0
    3.0489   -4.9533    7.2647 C   0  0  0  0  0  0  0  0  0  0  0  0
    1.9842   -4.2883    6.6703 C   0  0  0  0  0  0  0  0  0  0  0  0
    2.1928   -3.1048    5.9444 C   0  0  0  0  0  0  0  0  0  0  0  0
    1.0187   -2.4513    5.3511 C   0  0  0  0  0  0  0  0  0  0  0  0
    0.1594   -1.6292    6.0684 N   0  0  0  0  0  0  0  0  0  0  0  0
    0.2662   -1.3090    7.4864 C   0  0  0  0  0  0  0  0  0  0  0  0
   -0.6550   -2.1627    8.3428 C   0  0  0  0  0  0  0  0  0  0  0  0
    0.5324   -2.5237    4.0446 C   0  0  0  0  0  0  0  0  0  0  0  0
    1.1129   -3.2997    2.8794 C   0  0  0  0  0  0  0  0  0  0  0  0
    0.4901   -4.6909    2.5512 C   0  0  0  0  0  0  0  0  0  0  0  0
    1.3918   -5.3552    1.4845 C   0  0  0  0  0  0  0  0  0  0  0  0
    0.4971   -5.6030    3.7917 C   0  0  0  0  0  0  0  0  0  0  0  0
   -0.9663   -4.6075    2.0271 C   0  0  0  0  0  0  0  0  0  0  0  0
   -1.0807   -4.0775    0.6851 O   0  0  0  0  0  0  0  0  0  0  0  0
   -1.3838   -4.9974   -0.2884 C   0  0  0  0  0  0  0  0  0  0  0  0
   -1.7415   -4.3239   -1.6235 C   0  0  1  0  0  0  0  0  0  0  0  0
   -0.8223   -3.2109   -1.9303 N   0  0  0  0  0  0  0  0  0  0  0  0
   -1.1765   -2.5770   -3.1592 N   0  0  0  0  0  0  0  0  0  0  0  0
   -1.4403   -1.2080   -3.3264 C   0  0  0  0  0  0  0  0  0  0  0  0
   -1.7836   -0.3934   -2.0644 C   0  0  1  0  0  0  0  0  0  0  0  0
   -1.3688    0.9966   -2.1848 N   0  0  0  0  0  0  0  0  0  0  0  0
   -0.1025    1.3927   -1.8133 C   0  0  0  0  0  0  0  0  0  0  0  0
    0.1727    2.9146   -1.9227 C   0  0  2  0  0  0  0  0  0  0  0  0
    0.9409    3.2637   -3.2243 C   0  0  0  0  0  0  0  0  0  0  0  0
    1.1568    4.7785   -3.3419 C   0  0  0  0  0  0  0  0  0  0  0  0
    0.1952    2.7791   -4.4760 C   0  0  0  0  0  0  0  0  0  0  0  0
    0.8327    3.3501   -0.6564 N   0  0  0  0  0  0  0  0  0  0  0  0
   -0.0225    3.6904    0.3988 C   0  0  0  0  0  0  0  0  0  0  0  0
    0.5281    3.8413    1.8408 C   0  0  0  0  0  0  0  0  0  0  0  0
   -0.5168    4.5454    2.7175 C   0  0  0  0  0  0  0  0  0  0  0  0
   -0.0677    4.6252    4.1664 C   0  0  0  0  0  0  0  0  0  0  0  0
    0.3162    3.3169    4.6842 N   0  0  0  0  0  0  0  0  0  0  0  0
    0.2021    2.9928    6.0358 C   0  0  0  0  0  0  0  0  0  0  0  0
   -0.7618    3.7167    6.8361 C   0  0  0  0  0  0  0  0  0  0  0  0
   -1.5967    4.2686    7.5026 C   0  0  0  0  0  0  0  0  0  0  0  0
   -2.6594    4.9102    8.3200 C   0  0  0  0  0  0  0  0  0  0  0  0
   -3.5698    3.8484    8.8244 N   0  0  0  0  0  0  0  0  0  0  0  0
   -2.9399    2.9291    9.7800 C   0  0  0  0  0  0  0  0  0  0  0  0
   -4.8317    4.3345    9.3841 C   0  0  0  0  0  0  0  0  0  0  0  0
   -3.4003    5.8863    7.3729 C   0  0  0  0  0  0  0  0  0  0  0  0
   -1.9901    5.7424    9.4342 C   0  0  0  0  0  0  0  0  0  0  0  0
    0.8516    2.1159    6.5931 O   0  0  0  0  0  0  0  0  0  0  0  0
    1.2835    2.5748    3.8896 C   0  0  0  0  0  0  0  0  0  0  0  0
    0.8622    2.4679    2.4305 C   0  0  0  0  0  0  0  0  0  0  0  0
   -1.2356    3.8265    0.1941 O   0  0  0  0  0  0  0  0  0  0  0  0
    2.2584    3.0649   -0.4888 C   0  0  0  0  0  0  0  0  0  0  0  0
    0.7361    0.5823   -1.4198 O   0  0  0  0  0  0  0  0  0  0  0  0
   -3.2980   -0.5193   -1.7940 C   0  0  0  0  0  0  0  0  0  0  0  0
   -3.7730    0.0620   -0.4505 C   0  0  1  0  0  0  0  0  0  0  0  0
   -2.8812   -0.4107    0.7058 C   0  0  0  0  0  0  0  0  0  0  0  0
   -3.2679    0.1699    2.0059 N   0  0  0  0  0  0  0  0  0  0  0  0
   -3.4002    1.6487    1.9113 C   0  0  0  0  0  0  0  0  0  0  0  0
   -4.2699    2.0507    0.7039 C   0  0  0  0  0  0  0  0  0  0  0  0
   -3.7881    1.4961   -0.5345 O   0  0  0  0  0  0  0  0  0  0  0  0
   -1.5169   -0.6849   -4.4437 O   0  0  0  0  0  0  0  0  0  0  0  0
   -1.0416   -3.4488   -4.3289 C   0  0  0  0  0  0  0  0  0  0  0  0
   -1.9192   -4.6856   -4.1384 C   0  0  0  0  0  0  0  0  0  0  0  0
   -1.6669   -5.3429   -2.7773 C   0  0  0  0  0  0  0  0  0  0  0  0
   -1.4528   -6.2070   -0.1028 O   0  0  0  0  0  0  0  0  0  0  0  0
   -0.5700   -1.6148    3.9705 C   0  0  0  0  0  0  0  0  0  0  0  0
   -0.7992   -1.0876    5.2336 C   0  0  0  0  0  0  0  0  0  0  0  0
   -1.8436   -0.1792    5.4702 C   0  0  0  0  0  0  0  0  0  0  0  0
   -2.6524    0.2099    4.3878 C   0  0  0  0  0  0  0  0  0  0  0  0
   -2.4396   -0.2543    3.0850 C   0  0  0  0  0  0  0  0  0  0  0  0
   -1.3942   -1.1841    2.9114 C   0  0  0  0  0  0  0  0  0  0  0  0
    1.6531    4.6228    1.8764 F   0  0  0  0  0  0  0  0  0  0  0  0
    3.7539   -0.1938    7.0257 H   0  0  0  0  0  0  0  0  0  0  0  0
    3.9451    0.8118    5.5800 H   0  0  0  0  0  0  0  0  0  0  0  0
    2.4002    0.0601    5.9040 H   0  0  0  0  0  0  0  0  0  0  0  0
    5.0074   -1.3181    5.1167 H   0  0  0  0  0  0  0  0  0  0  0  0
    5.2148   -0.7582    2.9081 H   0  0  0  0  0  0  0  0  0  0  0  0
    3.7421   -0.4498    1.9673 H   0  0  0  0  0  0  0  0  0  0  0  0
    4.1450    0.6247    3.3165 H   0  0  0  0  0  0  0  0  0  0  0  0
    5.1782   -4.8885    7.5653 H   0  0  0  0  0  0  0  0  0  0  0  0
    2.8971   -5.8719    7.8190 H   0  0  0  0  0  0  0  0  0  0  0  0
    0.9819   -4.6994    6.7646 H   0  0  0  0  0  0  0  0  0  0  0  0
    1.3063   -1.4346    7.8021 H   0  0  0  0  0  0  0  0  0  0  0  0
    0.0270   -0.2484    7.6117 H   0  0  0  0  0  0  0  0  0  0  0  0
   -0.5560   -1.8859    9.3967 H   0  0  0  0  0  0  0  0  0  0  0  0
   -1.7030   -2.0312    8.0544 H   0  0  0  0  0  0  0  0  0  0  0  0
   -0.4161   -3.2262    8.2474 H   0  0  0  0  0  0  0  0  0  0  0  0
    1.0671   -2.6657    1.9836 H   0  0  0  0  0  0  0  0  0  0  0  0
    2.1846   -3.4421    3.0718 H   0  0  0  0  0  0  0  0  0  0  0  0
    2.4074   -5.5088    1.8671 H   0  0  0  0  0  0  0  0  0  0  0  0
    1.0029   -6.3362    1.1903 H   0  0  0  0  0  0  0  0  0  0  0  0
    1.4721   -4.7372    0.5837 H   0  0  0  0  0  0  0  0  0  0  0  0
   -0.1635   -5.2223    4.5773 H   0  0  0  0  0  0  0  0  0  0  0  0
    0.1489   -6.6120    3.5411 H   0  0  0  0  0  0  0  0  0  0  0  0
    1.5076   -5.7063    4.2002 H   0  0  0  0  0  0  0  0  0  0  0  0
   -1.4445   -5.5937    2.0919 H   0  0  0  0  0  0  0  0  0  0  0  0
   -1.5760   -3.9707    2.6738 H   0  0  0  0  0  0  0  0  0  0  0  0
   -2.7660   -3.9469   -1.5211 H   0  0  0  0  0  0  0  0  0  0  0  0
   -0.7129   -2.5855   -1.1344 H   0  0  0  0  0  0  0  0  0  0  0  0
   -1.2134   -0.8092   -1.2392 H   0  0  0  0  0  0  0  0  0  0  0  0
   -2.0425    1.6778   -2.5207 H   0  0  0  0  0  0  0  0  0  0  0  0
   -0.8012    3.4162   -1.9855 H   0  0  0  0  0  0  0  0  0  0  0  0
    1.9186    2.7678   -3.2257 H   0  0  0  0  0  0  0  0  0  0  0  0
    1.7680    5.1646   -2.5219 H   0  0  0  0  0  0  0  0  0  0  0  0
    1.6731    5.0245   -4.2757 H   0  0  0  0  0  0  0  0  0  0  0  0
    0.2023    5.3150   -3.3326 H   0  0  0  0  0  0  0  0  0  0  0  0
    0.1515    1.6863   -4.5135 H   0  0  0  0  0  0  0  0  0  0  0  0
   -0.8289    3.1664   -4.5043 H   0  0  0  0  0  0  0  0  0  0  0  0
    0.7062    3.1097   -5.3860 H   0  0  0  0  0  0  0  0  0  0  0  0
   -0.6938    5.5612    2.3444 H   0  0  0  0  0  0  0  0  0  0  0  0
   -1.4757    4.0164    2.6785 H   0  0  0  0  0  0  0  0  0  0  0  0
    0.8044    5.2831    4.2669 H   0  0  0  0  0  0  0  0  0  0  0  0
   -0.8701    5.0679    4.7634 H   0  0  0  0  0  0  0  0  0  0  0  0
   -2.7310    3.4062   10.7438 H   0  0  0  0  0  0  0  0  0  0  0  0
   -3.5998    2.0741    9.9680 H   0  0  0  0  0  0  0  0  0  0  0  0
   -2.0080    2.5042    9.3945 H   0  0  0  0  0  0  0  0  0  0  0  0
   -4.6825    5.0107   10.2315 H   0  0  0  0  0  0  0  0  0  0  0  0
   -5.4374    4.8422    8.6276 H   0  0  0  0  0  0  0  0  0  0  0  0
   -5.4473    3.4957    9.7299 H   0  0  0  0  0  0  0  0  0  0  0  0
   -4.1196    6.5149    7.9093 H   0  0  0  0  0  0  0  0  0  0  0  0
   -2.6965    6.5639    6.8719 H   0  0  0  0  0  0  0  0  0  0  0  0
   -3.9370    5.3466    6.5829 H   0  0  0  0  0  0  0  0  0  0  0  0
   -1.3440    5.1323   10.0760 H   0  0  0  0  0  0  0  0  0  0  0  0
   -1.3495    6.5247    9.0073 H   0  0  0  0  0  0  0  0  0  0  0  0
   -2.7291    6.2415   10.0699 H   0  0  0  0  0  0  0  0  0  0  0  0
    2.2480    3.0891    3.9779 H   0  0  0  0  0  0  0  0  0  0  0  0
    1.4131    1.5678    4.2979 H   0  0  0  0  0  0  0  0  0  0  0  0
   -0.0128    1.8107    2.3507 H   0  0  0  0  0  0  0  0  0  0  0  0
    1.6700    1.9800    1.8785 H   0  0  0  0  0  0  0  0  0  0  0  0
    2.6788    3.5501    0.3898 H   0  0  0  0  0  0  0  0  0  0  0  0
    2.4122    1.9887   -0.3870 H   0  0  0  0  0  0  0  0  0  0  0  0
    2.8232    3.4319   -1.3479 H   0  0  0  0  0  0  0  0  0  0  0  0
   -3.8481   -0.0290   -2.6088 H   0  0  0  0  0  0  0  0  0  0  0  0
   -3.5751   -1.5804   -1.8222 H   0  0  0  0  0  0  0  0  0  0  0  0
   -4.8064   -0.2709   -0.2838 H   0  0  0  0  0  0  0  0  0  0  0  0
   -2.9366   -1.5061    0.7404 H   0  0  0  0  0  0  0  0  0  0  0  0
   -1.8523   -0.0889    0.5146 H   0  0  0  0  0  0  0  0  0  0  0  0
   -3.8562    2.0728    2.8110 H   0  0  0  0  0  0  0  0  0  0  0  0
   -2.4026    2.0805    1.7861 H   0  0  0  0  0  0  0  0  0  0  0  0
   -5.3094    1.7332    0.8518 H   0  0  0  0  0  0  0  0  0  0  0  0
   -4.2696    3.1397    0.5964 H   0  0  0  0  0  0  0  0  0  0  0  0
   -1.3319   -2.9258   -5.2456 H   0  0  0  0  0  0  0  0  0  0  0  0
    0.0157   -3.7265   -4.4217 H   0  0  0  0  0  0  0  0  0  0  0  0
   -2.9746   -4.3900   -4.1957 H   0  0  0  0  0  0  0  0  0  0  0  0
   -1.7396   -5.4047   -4.9450 H   0  0  0  0  0  0  0  0  0  0  0  0
   -0.6792   -5.8249   -2.7884 H   0  0  0  0  0  0  0  0  0  0  0  0
   -2.4015   -6.1426   -2.6212 H   0  0  0  0  0  0  0  0  0  0  0  0
   -2.0307    0.2252    6.4599 H   0  0  0  0  0  0  0  0  0  0  0  0
   -3.4741    0.8882    4.5992 H   0  0  0  0  0  0  0  0  0  0  0  0
   -1.1542   -1.5996    1.9429 H   0  0  0  0  0  0  0  0  0  0  0  0
  1  2  1  0
  2  3  1  0
  2  5  1  0
  3  4  1  0
  5  6  2  0
  5 10  1  0
  6  7  1  0
  7  8  2  0
  8  9  1  0
  9 10  2  0
 10 11  1  0
 11 12  1  0
 11 15  2  0
 12 13  1  0
 12 68  1  0
 13 14  1  0
 15 16  1  0
 15 67  1  0
 16 17  1  0
 17 18  1  0
 17 19  1  0
 17 20  1  0
 20 21  1  0
 21 22  1  0
 22 23  1  0
 22 66  2  0
 23 24  1  0
 23 65  1  0
 24 25  1  0
 25 26  1  0
 25 63  1  0
 26 27  1  0
 26 62  2  0
 27 28  1  0
 27 55  1  0
 28 29  1  0
 29 30  1  0
 29 54  2  0
 30 31  1  0
 30 34  1  0
 31 32  1  0
 31 33  1  0
 34 35  1  0
 34 53  1  0
 35 36  1  0
 35 52  2  0
 36 37  1  0
 36 51  1  0
 36 73  1  0
 37 38  1  0
 38 39  1  0
 39 40  1  0
 39 50  1  0
 40 41  1  0
 40 49  2  0
 42 43  1  0
 43 44  1  0
 43 47  1  0
 43 48  1  0
 44 45  1  0
 44 46  1  0
 50 51  1  0
 55 56  1  0
 56 57  1  0
 56 61  1  0
 57 58  1  0
 58 59  1  0
 58 71  1  0
 59 60  1  0
 60 61  1  0
 63 64  1  0
 64 65  1  0
 67 68  2  0
 67 72  1  0
 68 69  1  0
 69 70  2  0
 70 71  1  0
 71 72  2  0
 41 42  3  0
  1 74  1  0
  1 75  1  0
  1 76  1  0
  2 77  1  6
  4 78  1  0
  4 79  1  0
  4 80  1  0
  7 81  1  0
  8 82  1  0
  9 83  1  0
 13 84  1  0
 13 85  1  0
 14 86  1  0
 14 87  1  0
 14 88  1  0
 16 89  1  0
 16 90  1  0
 18 91  1  0
 18 92  1  0
 18 93  1  0
 19 94  1  0
 19 95  1  0
 19 96  1  0
 20 97  1  0
 20 98  1  0
 23 99  1  1
 24100  1  0
 27101  1  1
 28102  1  0
 30103  1  6
 31104  1  0
 32105  1  0
 32106  1  0
 32107  1  0
 33108  1  0
 33109  1  0
 33110  1  0
 37111  1  0
 37112  1  0
 38113  1  0
 38114  1  0
 45115  1  0
 45116  1  0
 45117  1  0
 46118  1  0
 46119  1  0
 46120  1  0
 47121  1  0
 47122  1  0
 47123  1  0
 48124  1  0
 48125  1  0
 48126  1  0
 50127  1  0
 50128  1  0
 51129  1  0
 51130  1  0
 53131  1  0
 53132  1  0
 53133  1  0
 55134  1  0
 55135  1  0
 56136  1  1
 57137  1  0
 57138  1  0
 59139  1  0
 59140  1  0
 60141  1  0
 60142  1  0
 63143  1  0
 63144  1  0
 64145  1  0
 64146  1  0
 65147  1  0
 65148  1  0
 69149  1  0
 70150  1  0
 72151  1  0
M  END
$$$$
