 xtb: 6.7.1 (edcfbbe)
          08172520083D

151157  0     0  0            999 V2000
    2.7428    7.4451   -7.6619 C   0  0  0  0  0  0  0  0  0  0  0  0
    2.8195    5.9226   -7.5462 C   0  0  0  0  0  0  0  0  0  0  0  0
    4.0002    5.3675   -8.1116 O   0  0  0  0  0  0  0  0  0  0  0  0
    4.2793    5.7088   -9.4515 C   0  0  0  0  0  0  0  0  0  0  0  0
    1.5825    5.2794   -8.1446 C   0  0  0  0  0  0  0  0  0  0  0  0
    1.2392    5.6954   -9.3560 N   0  0  0  0  0  0  0  0  0  0  0  0
    0.1823    5.1763   -9.9531 C   0  0  0  0  0  0  0  0  0  0  0  0
   -0.6166    4.2108   -9.3638 C   0  0  0  0  0  0  0  0  0  0  0  0
   -0.2713    3.7719   -8.0984 C   0  0  0  0  0  0  0  0  0  0  0  0
    0.8533    4.2948   -7.4615 C   0  0  0  0  0  0  0  0  0  0  0  0
    1.2115    3.8298   -6.1165 C   0  0  0  0  0  0  0  0  0  0  0  0
    0.4046    4.1244   -5.0386 N   0  0  0  0  0  0  0  0  0  0  0  0
   -0.7781    4.9435   -5.0453 C   0  0  0  0  0  0  0  0  0  0  0  0
   -2.0567    4.1171   -4.9063 C   0  0  0  0  0  0  0  0  0  0  0  0
    2.2879    3.0725   -5.7128 C   0  0  0  0  0  0  0  0  0  0  0  0
    3.3793    2.5493   -6.5893 C   0  0  0  0  0  0  0  0  0  0  0  0
    3.1452    1.1363   -7.1741 C   0  0  0  0  0  0  0  0  0  0  0  0
    4.1445    0.9070   -8.3104 C   0  0  0  0  0  0  0  0  0  0  0  0
    1.7231    0.9839   -7.7119 C   0  0  0  0  0  0  0  0  0  0  0  0
    3.3601    0.0718   -6.0926 C   0  0  0  0  0  0  0  0  0  0  0  0
    4.7300    0.0823   -5.6802 O   0  0  0  0  0  0  0  0  0  0  0  0
    5.0309   -0.5729   -4.5709 C   0  0  0  0  0  0  0  0  0  0  0  0
    6.4972   -0.4168   -4.1949 C   0  0  0  0  0  0  0  0  0  0  0  0
    6.9847   -1.6067   -3.5167 N   0  0  0  0  0  0  0  0  0  0  0  0
    8.1809   -1.3041   -2.8609 N   0  0  0  0  0  0  0  0  0  0  0  0
    8.2833   -0.7411   -1.6339 C   0  0  0  0  0  0  0  0  0  0  0  0
    6.9839   -0.6799   -0.8059 C   0  0  0  0  0  0  0  0  0  0  0  0
    6.9884   -1.7453    0.1704 N   0  0  0  0  0  0  0  0  0  0  0  0
    6.4563   -2.9431   -0.1106 C   0  0  0  0  0  0  0  0  0  0  0  0
    6.4003   -3.8608    1.1138 C   0  0  0  0  0  0  0  0  0  0  0  0
    6.3351   -5.3471    0.7446 C   0  0  0  0  0  0  0  0  0  0  0  0
    6.0517   -6.1980    1.9791 C   0  0  0  0  0  0  0  0  0  0  0  0
    7.6674   -5.7452    0.1114 C   0  0  0  0  0  0  0  0  0  0  0  0
    5.2710   -3.3946    1.9214 N   0  0  0  0  0  0  0  0  0  0  0  0
    5.5694   -2.5795    2.9483 C   0  0  0  0  0  0  0  0  0  0  0  0
    4.4804   -2.1310    3.9343 C   0  0  0  0  0  0  0  0  0  0  0  0
    4.4138   -3.1665    5.0645 C   0  0  0  0  0  0  0  0  0  0  0  0
    3.4539   -2.6939    6.1579 C   0  0  0  0  0  0  0  0  0  0  0  0
    3.8294   -1.3817    6.6253 N   0  0  0  0  0  0  0  0  0  0  0  0
    4.2451   -1.2096    7.9050 C   0  0  0  0  0  0  0  0  0  0  0  0
    4.6368    0.1375    8.2461 C   0  0  0  0  0  0  0  0  0  0  0  0
    5.0054    1.1960    8.6845 C   0  0  0  0  0  0  0  0  0  0  0  0
    5.3416    2.5117    9.2204 C   0  0  0  0  0  0  0  0  0  0  0  0
    6.4530    3.0845    8.4528 N   0  0  0  0  0  0  0  0  0  0  0  0
    6.3103    3.0005    7.0163 C   0  0  0  0  0  0  0  0  0  0  0  0
    6.8408    4.4200    8.8497 C   0  0  0  0  0  0  0  0  0  0  0  0
    5.7834    2.2858   10.6768 C   0  0  0  0  0  0  0  0  0  0  0  0
    4.0461    3.3525    9.1907 C   0  0  0  0  0  0  0  0  0  0  0  0
    4.2640   -2.1083    8.7259 O   0  0  0  0  0  0  0  0  0  0  0  0
    3.8451   -0.3683    5.6018 C   0  0  0  0  0  0  0  0  0  0  0  0
    4.8277   -0.7489    4.4928 C   0  0  0  0  0  0  0  0  0  0  0  0
    6.7232   -2.2637    3.2119 O   0  0  0  0  0  0  0  0  0  0  0  0
    3.9488   -3.5697    1.3566 C   0  0  0  0  0  0  0  0  0  0  0  0
    6.0047   -3.2408   -1.2022 O   0  0  0  0  0  0  0  0  0  0  0  0
    6.8460    0.6920   -0.1430 C   0  0  0  0  0  0  0  0  0  0  0  0
    5.3897    1.1118    0.0739 C   0  0  0  0  0  0  0  0  0  0  0  0
    4.6390    1.3355   -1.2496 C   0  0  0  0  0  0  0  0  0  0  0  0
    3.2809    1.7434   -0.9576 N   0  0  0  0  0  0  0  0  0  0  0  0
    2.6249    0.7109   -0.1730 C   0  0  0  0  0  0  0  0  0  0  0  0
    3.4067    0.5176    1.1240 C   0  0  0  0  0  0  0  0  0  0  0  0
    4.7401    0.1371    0.8680 O   0  0  0  0  0  0  0  0  0  0  0  0
    9.3464   -0.3598   -1.1808 O   0  0  0  0  0  0  0  0  0  0  0  0
    9.2386   -1.1395   -3.8416 C   0  0  0  0  0  0  0  0  0  0  0  0
    8.8752    0.0188   -4.7796 C   0  0  0  0  0  0  0  0  0  0  0  0
    7.4661   -0.1642   -5.3537 C   0  0  0  0  0  0  0  0  0  0  0  0
    4.2377   -1.1638   -3.8833 O   0  0  0  0  0  0  0  0  0  0  0  0
    2.1526    2.9041   -4.3014 C   0  0  0  0  0  0  0  0  0  0  0  0
    0.9680    3.5744   -3.9197 C   0  0  0  0  0  0  0  0  0  0  0  0
    0.5650    3.6195   -2.5899 C   0  0  0  0  0  0  0  0  0  0  0  0
    1.3479    2.9857   -1.6559 C   0  0  0  0  0  0  0  0  0  0  0  0
    2.5295    2.3046   -2.0079 C   0  0  0  0  0  0  0  0  0  0  0  0
    2.9338    2.2719   -3.3312 C   0  0  0  0  0  0  0  0  0  0  0  0
    3.2160   -2.0391    3.3594 F   0  0  0  0  0  0  0  0  0  0  0  0
    3.6789    7.8870   -7.3300 H   0  0  0  0  0  0  0  0  0  0  0  0
    2.5436    7.7345   -8.6898 H   0  0  0  0  0  0  0  0  0  0  0  0
    1.9361    7.8134   -7.0333 H   0  0  0  0  0  0  0  0  0  0  0  0
    2.8922    5.6353   -6.4908 H   0  0  0  0  0  0  0  0  0  0  0  0
    4.6541    6.7339   -9.5343 H   0  0  0  0  0  0  0  0  0  0  0  0
    5.0570    5.0181   -9.7753 H   0  0  0  0  0  0  0  0  0  0  0  0
    3.3975    5.5954  -10.0878 H   0  0  0  0  0  0  0  0  0  0  0  0
   -0.0295    5.5612  -10.9422 H   0  0  0  0  0  0  0  0  0  0  0  0
   -1.4789    3.8143   -9.8766 H   0  0  0  0  0  0  0  0  0  0  0  0
   -0.8578    3.0106   -7.6045 H   0  0  0  0  0  0  0  0  0  0  0  0
   -0.7125    5.6537   -4.2135 H   0  0  0  0  0  0  0  0  0  0  0  0
   -0.8006    5.5120   -5.9791 H   0  0  0  0  0  0  0  0  0  0  0  0
   -2.0239    3.5194   -3.9993 H   0  0  0  0  0  0  0  0  0  0  0  0
   -2.9200    4.7758   -4.8621 H   0  0  0  0  0  0  0  0  0  0  0  0
   -2.1764    3.4468   -5.7532 H   0  0  0  0  0  0  0  0  0  0  0  0
    3.5197    3.2421   -7.4194 H   0  0  0  0  0  0  0  0  0  0  0  0
    4.3108    2.5261   -6.0205 H   0  0  0  0  0  0  0  0  0  0  0  0
    5.1620    1.0284   -7.9500 H   0  0  0  0  0  0  0  0  0  0  0  0
    4.0394   -0.0975   -8.7148 H   0  0  0  0  0  0  0  0  0  0  0  0
    3.9715    1.6223   -9.1107 H   0  0  0  0  0  0  0  0  0  0  0  0
    0.9960    1.0901   -6.9106 H   0  0  0  0  0  0  0  0  0  0  0  0
    1.5276    1.7427   -8.4647 H   0  0  0  0  0  0  0  0  0  0  0  0
    1.5927    0.0046   -8.1675 H   0  0  0  0  0  0  0  0  0  0  0  0
    2.7219    0.2594   -5.2232 H   0  0  0  0  0  0  0  0  0  0  0  0
    3.1266   -0.9262   -6.4798 H   0  0  0  0  0  0  0  0  0  0  0  0
    6.5234    0.4689   -3.5240 H   0  0  0  0  0  0  0  0  0  0  0  0
    6.3150   -2.0927   -2.9215 H   0  0  0  0  0  0  0  0  0  0  0  0
    6.1196   -0.8701   -1.4457 H   0  0  0  0  0  0  0  0  0  0  0  0
    7.3343   -1.5495    1.0992 H   0  0  0  0  0  0  0  0  0  0  0  0
    7.2934   -3.6947    1.7252 H   0  0  0  0  0  0  0  0  0  0  0  0
    5.5522   -5.5061   -0.0025 H   0  0  0  0  0  0  0  0  0  0  0  0
    5.0739   -5.9740    2.3972 H   0  0  0  0  0  0  0  0  0  0  0  0
    6.0781   -7.2533    1.7191 H   0  0  0  0  0  0  0  0  0  0  0  0
    6.8032   -6.0130    2.7438 H   0  0  0  0  0  0  0  0  0  0  0  0
    7.6436   -6.7917   -0.1824 H   0  0  0  0  0  0  0  0  0  0  0  0
    7.8599   -5.1449   -0.7738 H   0  0  0  0  0  0  0  0  0  0  0  0
    8.4849   -5.6027    0.8151 H   0  0  0  0  0  0  0  0  0  0  0  0
    4.0773   -4.1253    4.6668 H   0  0  0  0  0  0  0  0  0  0  0  0
    5.4179   -3.2882    5.4719 H   0  0  0  0  0  0  0  0  0  0  0  0
    2.4338   -2.6535    5.7578 H   0  0  0  0  0  0  0  0  0  0  0  0
    3.4817   -3.3735    7.0119 H   0  0  0  0  0  0  0  0  0  0  0  0
    6.1170    1.9694    6.7277 H   0  0  0  0  0  0  0  0  0  0  0  0
    5.5083    3.6409    6.6145 H   0  0  0  0  0  0  0  0  0  0  0  0
    7.2502    3.3133    6.5619 H   0  0  0  0  0  0  0  0  0  0  0  0
    6.9623    4.4744    9.9277 H   0  0  0  0  0  0  0  0  0  0  0  0
    7.8047    4.6415    8.3904 H   0  0  0  0  0  0  0  0  0  0  0  0
    6.1269    5.1950    8.5299 H   0  0  0  0  0  0  0  0  0  0  0  0
    5.0992    1.5938   11.1618 H   0  0  0  0  0  0  0  0  0  0  0  0
    6.7816    1.8570   10.6897 H   0  0  0  0  0  0  0  0  0  0  0  0
    5.7842    3.2159   11.2390 H   0  0  0  0  0  0  0  0  0  0  0  0
    3.2572    2.8258    9.7216 H   0  0  0  0  0  0  0  0  0  0  0  0
    4.2088    4.3134    9.6726 H   0  0  0  0  0  0  0  0  0  0  0  0
    3.7189    3.5185    8.1664 H   0  0  0  0  0  0  0  0  0  0  0  0
    2.8369   -0.2816    5.1765 H   0  0  0  0  0  0  0  0  0  0  0  0
    4.1232    0.5892    6.0449 H   0  0  0  0  0  0  0  0  0  0  0  0
    5.8470   -0.7851    4.8761 H   0  0  0  0  0  0  0  0  0  0  0  0
    4.7864   -0.0205    3.6820 H   0  0  0  0  0  0  0  0  0  0  0  0
    3.2769   -4.0599    2.0614 H   0  0  0  0  0  0  0  0  0  0  0  0
    3.5215   -2.6097    1.0655 H   0  0  0  0  0  0  0  0  0  0  0  0
    4.0312   -4.1816    0.4638 H   0  0  0  0  0  0  0  0  0  0  0  0
    7.3614    0.6708    0.8182 H   0  0  0  0  0  0  0  0  0  0  0  0
    7.3348    1.4468   -0.7615 H   0  0  0  0  0  0  0  0  0  0  0  0
    5.3787    2.0722    0.6208 H   0  0  0  0  0  0  0  0  0  0  0  0
    5.1379    2.1339   -1.8032 H   0  0  0  0  0  0  0  0  0  0  0  0
    4.6459    0.4092   -1.8451 H   0  0  0  0  0  0  0  0  0  0  0  0
    1.6008    1.0047    0.0527 H   0  0  0  0  0  0  0  0  0  0  0  0
    2.6063   -0.2434   -0.7267 H   0  0  0  0  0  0  0  0  0  0  0  0
    3.3950    1.4598    1.6948 H   0  0  0  0  0  0  0  0  0  0  0  0
    2.9654   -0.2775    1.7255 H   0  0  0  0  0  0  0  0  0  0  0  0
   10.1686   -0.9386   -3.3104 H   0  0  0  0  0  0  0  0  0  0  0  0
    9.3182   -2.0735   -4.4012 H   0  0  0  0  0  0  0  0  0  0  0  0
    8.9171    0.9526   -4.2134 H   0  0  0  0  0  0  0  0  0  0  0  0
    9.6050    0.0785   -5.5869 H   0  0  0  0  0  0  0  0  0  0  0  0
    7.4441   -1.0302   -6.0157 H   0  0  0  0  0  0  0  0  0  0  0  0
    7.1676    0.7185   -5.9185 H   0  0  0  0  0  0  0  0  0  0  0  0
   -0.3266    4.1476   -2.2867 H   0  0  0  0  0  0  0  0  0  0  0  0
    1.0675    3.0284   -0.6146 H   0  0  0  0  0  0  0  0  0  0  0  0
    3.8421    1.7723   -3.6263 H   0  0  0  0  0  0  0  0  0  0  0  0
  1  2  1  0  0  0  0
  2  3  1  0  0  0  0
  3  4  1  0  0  0  0
  2  5  1  0  0  0  0
  5  6  4  0  0  0  0
  6  7  4  0  0  0  0
  7  8  4  0  0  0  0
  8  9  4  0  0  0  0
  5 10  4  0  0  0  0
  9 10  4  0  0  0  0
 10 11  1  0  0  0  0
 11 12  1  0  0  0  0
 12 13  1  0  0  0  0
 13 14  1  0  0  0  0
 11 15  2  0  0  0  0
 15 16  1  0  0  0  0
 16 17  1  0  0  0  0
 17 18  1  0  0  0  0
 17 19  1  0  0  0  0
 17 20  1  0  0  0  0
 20 21  1  0  0  0  0
 21 22  1  0  0  0  0
 22 23  1  0  0  0  0
 23 24  1  0  0  0  0
 24 25  1  0  0  0  0
 25 26  4  0  0  0  0
 26 27  1  0  0  0  0
 27 28  1  0  0  0  0
 28 29  4  0  0  0  0
 29 30  1  0  0  0  0
 30 31  1  0  0  0  0
 31 32  1  0  0  0  0
 31 33  1  0  0  0  0
 30 34  1  0  0  0  0
 34 35  4  0  0  0  0
 35 36  1  0  0  0  0
 36 37  1  0  0  0  0
 37 38  1  0  0  0  0
 38 39  1  0  0  0  0
 39 40  4  0  0  0  0
 40 41  1  0  0  0  0
 41 42  3  0  0  0  0
 42 43  1  0  0  0  0
 43 44  1  0  0  0  0
 44 45  1  0  0  0  0
 44 46  1  0  0  0  0
 43 47  1  0  0  0  0
 43 48  1  0  0  0  0
 40 49  2  0  0  0  0
 39 50  1  0  0  0  0
 36 51  1  0  0  0  0
 50 51  1  0  0  0  0
 35 52  2  0  0  0  0
 34 53  1  0  0  0  0
 29 54  2  0  0  0  0
 27 55  1  0  0  0  0
 55 56  1  0  0  0  0
 56 57  1  0  0  0  0
 57 58  1  0  0  0  0
 58 59  1  0  0  0  0
 59 60  1  0  0  0  0
 56 61  1  0  0  0  0
 60 61  1  0  0  0  0
 26 62  2  0  0  0  0
 25 63  1  0  0  0  0
 63 64  1  0  0  0  0
 23 65  1  0  0  0  0
 64 65  1  0  0  0  0
 22 66  2  0  0  0  0
 15 67  4  0  0  0  0
 12 68  1  0  0  0  0
 67 68  4  0  0  0  0
 68 69  4  0  0  0  0
 69 70  2  0  0  0  0
 58 71  1  0  0  0  0
 70 71  4  0  0  0  0
 67 72  4  0  0  0  0
 71 72  4  0  0  0  0
 36 73  1  0  0  0  0
  1 74  1  0  0  0  0
  1 75  1  0  0  0  0
  1 76  1  0  0  0  0
  2 77  1  0  0  0  0
  4 78  1  0  0  0  0
  4 79  1  0  0  0  0
  4 80  1  0  0  0  0
  7 81  1  0  0  0  0
  8 82  1  0  0  0  0
  9 83  1  0  0  0  0
 13 84  1  0  0  0  0
 13 85  1  0  0  0  0
 14 86  1  0  0  0  0
 14 87  1  0  0  0  0
 14 88  1  0  0  0  0
 16 89  1  0  0  0  0
 16 90  1  0  0  0  0
 18 91  1  0  0  0  0
 18 92  1  0  0  0  0
 18 93  1  0  0  0  0
 19 94  1  0  0  0  0
 19 95  1  0  0  0  0
 19 96  1  0  0  0  0
 20 97  1  0  0  0  0
 20 98  1  0  0  0  0
 23 99  1  0  0  0  0
 24100  1  0  0  0  0
 27101  1  0  0  0  0
 28102  1  0  0  0  0
 30103  1  0  0  0  0
 31104  1  0  0  0  0
 32105  1  0  0  0  0
 32106  1  0  0  0  0
 32107  1  0  0  0  0
 33108  1  0  0  0  0
 33109  1  0  0  0  0
 33110  1  0  0  0  0
 37111  1  0  0  0  0
 37112  1  0  0  0  0
 38113  1  0  0  0  0
 38114  1  0  0  0  0
 45115  1  0  0  0  0
 45116  1  0  0  0  0
 45117  1  0  0  0  0
 46118  1  0  0  0  0
 46119  1  0  0  0  0
 46120  1  0  0  0  0
 47121  1  0  0  0  0
 47122  1  0  0  0  0
 47123  1  0  0  0  0
 48124  1  0  0  0  0
 48125  1  0  0  0  0
 48126  1  0  0  0  0
 50127  1  0  0  0  0
 50128  1  0  0  0  0
 51129  1  0  0  0  0
 51130  1  0  0  0  0
 53131  1  0  0  0  0
 53132  1  0  0  0  0
 53133  1  0  0  0  0
 55134  1  0  0  0  0
 55135  1  0  0  0  0
 56136  1  0  0  0  0
 57137  1  0  0  0  0
 57138  1  0  0  0  0
 59139  1  0  0  0  0
 59140  1  0  0  0  0
 60141  1  0  0  0  0
 60142  1  0  0  0  0
 63143  1  0  0  0  0
 63144  1  0  0  0  0
 64145  1  0  0  0  0
 64146  1  0  0  0  0
 65147  1  0  0  0  0
 65148  1  0  0  0  0
 69149  1  0  0  0  0
 70150  1  0  0  0  0
 72151  1  0  0  0  0
M  END
$$$$
