 xtb: 6.7.1 (edcfbbe)
          08192500053D

151157  0     0  0            999 V2000
   -0.5549   15.0295  -13.0625 C   0  0  0  0  0  0  0  0  0  0  0  0
   -0.9072   14.2369  -11.8058 C   0  0  0  0  0  0  0  0  0  0  0  0
   -1.6996   14.9945  -10.9023 O   0  0  0  0  0  0  0  0  0  0  0  0
   -3.0756   14.9744  -11.1799 C   0  0  0  0  0  0  0  0  0  0  0  0
    0.3371   13.8044  -11.0538 C   0  0  0  0  0  0  0  0  0  0  0  0
    1.4930   14.3115  -11.4452 N   0  0  0  0  0  0  0  0  0  0  0  0
    2.6022   13.9451  -10.8291 C   0  0  0  0  0  0  0  0  0  0  0  0
    2.6245   13.0332   -9.7869 C   0  0  0  0  0  0  0  0  0  0  0  0
    1.4181   12.4946   -9.3708 C   0  0  0  0  0  0  0  0  0  0  0  0
    0.2393   12.8862   -9.9979 C   0  0  0  0  0  0  0  0  0  0  0  0
   -1.0592   12.3125   -9.6151 C   0  0  0  0  0  0  0  0  0  0  0  0
   -1.4979   11.1716  -10.2550 N   0  0  0  0  0  0  0  0  0  0  0  0
   -0.7378   10.3735  -11.1790 C   0  0  0  0  0  0  0  0  0  0  0  0
   -0.0254    9.2193  -10.4749 C   0  0  0  0  0  0  0  0  0  0  0  0
   -2.0086   12.7537   -8.7257 C   0  0  0  0  0  0  0  0  0  0  0  0
   -2.0163   13.9705   -7.8549 C   0  0  0  0  0  0  0  0  0  0  0  0
   -1.0034   14.0372   -6.6776 C   0  0  0  0  0  0  0  0  0  0  0  0
   -1.6659   14.7518   -5.4952 C   0  0  0  0  0  0  0  0  0  0  0  0
    0.2227   14.8530   -7.1024 C   0  0  0  0  0  0  0  0  0  0  0  0
   -0.5137   12.6478   -6.2270 C   0  0  0  0  0  0  0  0  0  0  0  0
   -1.3222   12.0702   -5.1964 O   0  0  0  0  0  0  0  0  0  0  0  0
   -1.6952   10.8067   -5.3259 C   0  0  0  0  0  0  0  0  0  0  0  0
   -2.3899   10.3102   -4.0606 C   0  0  0  0  0  0  0  0  0  0  0  0
   -2.4813    8.8598   -4.1395 N   0  0  0  0  0  0  0  0  0  0  0  0
   -3.2017    8.3081   -3.0742 N   0  0  0  0  0  0  0  0  0  0  0  0
   -4.4488    7.8016   -3.0998 C   0  0  0  0  0  0  0  0  0  0  0  0
   -5.2209    7.9586   -4.4121 C   0  0  0  0  0  0  0  0  0  0  0  0
   -6.2419    6.9472   -4.5046 N   0  0  0  0  0  0  0  0  0  0  0  0
   -6.4190    6.2019   -5.6058 C   0  0  0  0  0  0  0  0  0  0  0  0
   -7.6922    5.3431   -5.6008 C   0  0  0  0  0  0  0  0  0  0  0  0
   -7.4090    3.8735   -5.2695 C   0  0  0  0  0  0  0  0  0  0  0  0
   -8.7204    3.1089   -5.0919 C   0  0  0  0  0  0  0  0  0  0  0  0
   -6.5858    3.7877   -3.9839 C   0  0  0  0  0  0  0  0  0  0  0  0
   -8.3425    5.5776   -6.8983 N   0  0  0  0  0  0  0  0  0  0  0  0
   -8.9025    6.7985   -7.0032 C   0  0  0  0  0  0  0  0  0  0  0  0
   -9.6153    7.2352   -8.3002 C   0  0  0  0  0  0  0  0  0  0  0  0
   -9.8100    8.7542   -8.2865 C   0  0  0  0  0  0  0  0  0  0  0  0
  -10.7206    9.1902   -9.4338 C   0  0  0  0  0  0  0  0  0  0  0  0
  -11.9702    8.4758   -9.3816 N   0  0  0  0  0  0  0  0  0  0  0  0
  -13.1216    8.9820   -8.8659 C   0  0  0  0  0  0  0  0  0  0  0  0
  -13.0657   10.3812   -8.5161 C   0  0  0  0  0  0  0  0  0  0  0  0
  -13.1812   11.5075   -8.1042 C   0  0  0  0  0  0  0  0  0  0  0  0
  -13.1523   12.8857   -7.6156 C   0  0  0  0  0  0  0  0  0  0  0  0
  -11.7732   13.3733   -7.4389 N   0  0  0  0  0  0  0  0  0  0  0  0
  -11.0063   12.6109   -6.4722 C   0  0  0  0  0  0  0  0  0  0  0  0
  -11.0343   13.5080   -8.6789 C   0  0  0  0  0  0  0  0  0  0  0  0
  -13.8966   12.9391   -6.2709 C   0  0  0  0  0  0  0  0  0  0  0  0
  -13.9044   13.7761   -8.6173 C   0  0  0  0  0  0  0  0  0  0  0  0
  -14.1317    8.3197   -8.7140 O   0  0  0  0  0  0  0  0  0  0  0  0
  -11.8186    7.0488   -9.5272 C   0  0  0  0  0  0  0  0  0  0  0  0
  -10.9589    6.4982   -8.3843 C   0  0  0  0  0  0  0  0  0  0  0  0
   -8.9781    7.5465   -6.0354 O   0  0  0  0  0  0  0  0  0  0  0  0
   -7.9446    4.7270   -7.9991 C   0  0  0  0  0  0  0  0  0  0  0  0
   -5.6705    6.2402   -6.5641 O   0  0  0  0  0  0  0  0  0  0  0  0
   -5.8525    9.3672   -4.4114 C   0  0  0  0  0  0  0  0  0  0  0  0
   -5.6006   10.1287   -5.7162 C   0  0  0  0  0  0  0  0  0  0  0  0
   -6.4454    9.5830   -6.8782 C   0  0  0  0  0  0  0  0  0  0  0  0
   -6.4912   10.5597   -7.9523 N   0  0  0  0  0  0  0  0  0  0  0  0
   -7.1986   11.7542   -7.5162 C   0  0  0  0  0  0  0  0  0  0  0  0
   -7.0649   11.9835   -5.9963 C   0  0  0  0  0  0  0  0  0  0  0  0
   -5.8217   11.5225   -5.5156 O   0  0  0  0  0  0  0  0  0  0  0  0
   -4.9614    7.2745   -2.1264 O   0  0  0  0  0  0  0  0  0  0  0  0
   -2.4778    8.4890   -1.8311 C   0  0  0  0  0  0  0  0  0  0  0  0
   -2.2907    9.9890   -1.5861 C   0  0  0  0  0  0  0  0  0  0  0  0
   -1.5987   10.6355   -2.7874 C   0  0  0  0  0  0  0  0  0  0  0  0
   -1.5155   10.1192   -6.2975 O   0  0  0  0  0  0  0  0  0  0  0  0
   -3.1016   11.8379   -8.8283 C   0  0  0  0  0  0  0  0  0  0  0  0
   -2.7389   10.8561   -9.7772 C   0  0  0  0  0  0  0  0  0  0  0  0
   -3.5934    9.8073  -10.0970 C   0  0  0  0  0  0  0  0  0  0  0  0
   -4.8176    9.7632   -9.4723 C   0  0  0  0  0  0  0  0  0  0  0  0
   -5.2041   10.7395   -8.5400 C   0  0  0  0  0  0  0  0  0  0  0  0
   -4.3500   11.7738   -8.2116 C   0  0  0  0  0  0  0  0  0  0  0  0
   -8.8706    6.9464   -9.4420 F   0  0  0  0  0  0  0  0  0  0  0  0
    0.0744   14.4282  -13.7112 H   0  0  0  0  0  0  0  0  0  0  0  0
   -1.4578   15.3081  -13.6002 H   0  0  0  0  0  0  0  0  0  0  0  0
   -0.0120   15.9260  -12.7809 H   0  0  0  0  0  0  0  0  0  0  0  0
   -1.4665   13.3277  -12.0887 H   0  0  0  0  0  0  0  0  0  0  0  0
   -3.4770   13.9546  -11.1201 H   0  0  0  0  0  0  0  0  0  0  0  0
   -3.5499   15.5900  -10.4179 H   0  0  0  0  0  0  0  0  0  0  0  0
   -3.3029   15.3902  -12.1675 H   0  0  0  0  0  0  0  0  0  0  0  0
    3.5112   14.3998  -11.2004 H   0  0  0  0  0  0  0  0  0  0  0  0
    3.5533   12.7485   -9.3177 H   0  0  0  0  0  0  0  0  0  0  0  0
    1.3853   11.7749   -8.5648 H   0  0  0  0  0  0  0  0  0  0  0  0
   -1.4233    9.9788  -11.9356 H   0  0  0  0  0  0  0  0  0  0  0  0
   -0.0066   11.0157  -11.6800 H   0  0  0  0  0  0  0  0  0  0  0  0
    0.7064    9.6011   -9.7678 H   0  0  0  0  0  0  0  0  0  0  0  0
   -0.7447    8.6144   -9.9288 H   0  0  0  0  0  0  0  0  0  0  0  0
    0.4852    8.5941  -11.2027 H   0  0  0  0  0  0  0  0  0  0  0  0
   -1.8462   14.8450   -8.4869 H   0  0  0  0  0  0  0  0  0  0  0  0
   -3.0230   14.0504   -7.4427 H   0  0  0  0  0  0  0  0  0  0  0  0
   -0.9677   14.8406   -4.6658 H   0  0  0  0  0  0  0  0  0  0  0  0
   -1.9785   15.7495   -5.7941 H   0  0  0  0  0  0  0  0  0  0  0  0
   -2.5365   14.2008   -5.1491 H   0  0  0  0  0  0  0  0  0  0  0  0
    0.9224   14.9579   -6.2751 H   0  0  0  0  0  0  0  0  0  0  0  0
    0.7369   14.3814   -7.9334 H   0  0  0  0  0  0  0  0  0  0  0  0
   -0.0837   15.8479   -7.4153 H   0  0  0  0  0  0  0  0  0  0  0  0
   -0.4861   11.9551   -7.0721 H   0  0  0  0  0  0  0  0  0  0  0  0
    0.4909   12.7375   -5.7990 H   0  0  0  0  0  0  0  0  0  0  0  0
   -3.3731   10.8099   -4.0123 H   0  0  0  0  0  0  0  0  0  0  0  0
   -2.7969    8.5411   -5.0480 H   0  0  0  0  0  0  0  0  0  0  0  0
   -4.5822    7.8143   -5.2884 H   0  0  0  0  0  0  0  0  0  0  0  0
   -6.8404    6.8489   -3.6992 H   0  0  0  0  0  0  0  0  0  0  0  0
   -8.3773    5.7423   -4.8452 H   0  0  0  0  0  0  0  0  0  0  0  0
   -6.8192    3.4263   -6.0732 H   0  0  0  0  0  0  0  0  0  0  0  0
   -9.2550    3.4843   -4.2219 H   0  0  0  0  0  0  0  0  0  0  0  0
   -9.3707    3.2157   -5.9561 H   0  0  0  0  0  0  0  0  0  0  0  0
   -8.5211    2.0508   -4.9394 H   0  0  0  0  0  0  0  0  0  0  0  0
   -7.1046    4.2663   -3.1562 H   0  0  0  0  0  0  0  0  0  0  0  0
   -6.4205    2.7449   -3.7236 H   0  0  0  0  0  0  0  0  0  0  0  0
   -5.6173    4.2656   -4.1051 H   0  0  0  0  0  0  0  0  0  0  0  0
  -10.2442    9.0369   -7.3272 H   0  0  0  0  0  0  0  0  0  0  0  0
   -8.8335    9.2290   -8.3902 H   0  0  0  0  0  0  0  0  0  0  0  0
  -10.9109   10.2633   -9.3763 H   0  0  0  0  0  0  0  0  0  0  0  0
  -10.2343    8.9691  -10.3905 H   0  0  0  0  0  0  0  0  0  0  0  0
  -11.4802   12.6593   -5.4958 H   0  0  0  0  0  0  0  0  0  0  0  0
  -10.8827   11.5543   -6.7550 H   0  0  0  0  0  0  0  0  0  0  0  0
  -10.0184   13.0620   -6.3855 H   0  0  0  0  0  0  0  0  0  0  0  0
  -10.0217   13.8326   -8.4431 H   0  0  0  0  0  0  0  0  0  0  0  0
  -10.9695   12.5690   -9.2503 H   0  0  0  0  0  0  0  0  0  0  0  0
  -11.4901   14.2699   -9.3061 H   0  0  0  0  0  0  0  0  0  0  0  0
  -13.5631   12.1546   -5.5973 H   0  0  0  0  0  0  0  0  0  0  0  0
  -13.7306   13.9082   -5.8077 H   0  0  0  0  0  0  0  0  0  0  0  0
  -14.9618   12.8009   -6.4368 H   0  0  0  0  0  0  0  0  0  0  0  0
  -13.7697   14.8193   -8.3433 H   0  0  0  0  0  0  0  0  0  0  0  0
  -13.5539   13.6200   -9.6337 H   0  0  0  0  0  0  0  0  0  0  0  0
  -14.9642   13.5363   -8.5914 H   0  0  0  0  0  0  0  0  0  0  0  0
  -12.8123    6.5973   -9.5049 H   0  0  0  0  0  0  0  0  0  0  0  0
  -11.3409    6.8379  -10.4895 H   0  0  0  0  0  0  0  0  0  0  0  0
  -10.7884    5.4306   -8.5297 H   0  0  0  0  0  0  0  0  0  0  0  0
  -11.4795    6.6413   -7.4357 H   0  0  0  0  0  0  0  0  0  0  0  0
   -8.1944    3.6907   -7.7760 H   0  0  0  0  0  0  0  0  0  0  0  0
   -8.4477    5.0049   -8.9154 H   0  0  0  0  0  0  0  0  0  0  0  0
   -6.8670    4.8177   -8.1524 H   0  0  0  0  0  0  0  0  0  0  0  0
   -6.9286    9.2681   -4.2539 H   0  0  0  0  0  0  0  0  0  0  0  0
   -5.4583    9.9627   -3.5837 H   0  0  0  0  0  0  0  0  0  0  0  0
   -4.5397   10.0543   -5.9927 H   0  0  0  0  0  0  0  0  0  0  0  0
   -6.0074    8.6553   -7.2480 H   0  0  0  0  0  0  0  0  0  0  0  0
   -7.4636    9.3737   -6.5407 H   0  0  0  0  0  0  0  0  0  0  0  0
   -6.8233   12.6103   -8.0783 H   0  0  0  0  0  0  0  0  0  0  0  0
   -8.2606   11.6247   -7.7622 H   0  0  0  0  0  0  0  0  0  0  0  0
   -7.0914   13.0479   -5.7536 H   0  0  0  0  0  0  0  0  0  0  0  0
   -7.8865   11.4848   -5.4639 H   0  0  0  0  0  0  0  0  0  0  0  0
   -3.0584    8.0207   -1.0363 H   0  0  0  0  0  0  0  0  0  0  0  0
   -1.5058    7.9973   -1.9220 H   0  0  0  0  0  0  0  0  0  0  0  0
   -3.2687   10.4511   -1.4337 H   0  0  0  0  0  0  0  0  0  0  0  0
   -1.6979   10.1409   -0.6842 H   0  0  0  0  0  0  0  0  0  0  0  0
   -0.5926   10.2257   -2.8907 H   0  0  0  0  0  0  0  0  0  0  0  0
   -1.5280   11.7150   -2.6600 H   0  0  0  0  0  0  0  0  0  0  0  0
   -3.3144    9.0479  -10.8118 H   0  0  0  0  0  0  0  0  0  0  0  0
   -5.5102    8.9650   -9.6907 H   0  0  0  0  0  0  0  0  0  0  0  0
   -4.6277   12.5071   -7.4698 H   0  0  0  0  0  0  0  0  0  0  0  0
  1  2  1  0  0  0  0
  2  3  1  0  0  0  0
  3  4  1  0  0  0  0
  2  5  1  0  0  0  0
  5  6  4  0  0  0  0
  6  7  4  0  0  0  0
  7  8  4  0  0  0  0
  8  9  4  0  0  0  0
  5 10  4  0  0  0  0
  9 10  4  0  0  0  0
 10 11  1  0  0  0  0
 11 12  1  0  0  0  0
 12 13  1  0  0  0  0
 13 14  1  0  0  0  0
 11 15  2  0  0  0  0
 15 16  1  0  0  0  0
 16 17  1  0  0  0  0
 17 18  1  0  0  0  0
 17 19  1  0  0  0  0
 17 20  1  0  0  0  0
 20 21  1  0  0  0  0
 21 22  1  0  0  0  0
 22 23  1  0  0  0  0
 23 24  1  0  0  0  0
 24 25  1  0  0  0  0
 25 26  4  0  0  0  0
 26 27  1  0  0  0  0
 27 28  1  0  0  0  0
 28 29  4  0  0  0  0
 29 30  1  0  0  0  0
 30 31  1  0  0  0  0
 31 32  1  0  0  0  0
 31 33  1  0  0  0  0
 30 34  1  0  0  0  0
 34 35  4  0  0  0  0
 35 36  1  0  0  0  0
 36 37  1  0  0  0  0
 37 38  1  0  0  0  0
 38 39  1  0  0  0  0
 39 40  4  0  0  0  0
 40 41  1  0  0  0  0
 41 42  3  0  0  0  0
 42 43  1  0  0  0  0
 43 44  1  0  0  0  0
 44 45  1  0  0  0  0
 44 46  1  0  0  0  0
 43 47  1  0  0  0  0
 43 48  1  0  0  0  0
 40 49  2  0  0  0  0
 39 50  1  0  0  0  0
 36 51  1  0  0  0  0
 50 51  1  0  0  0  0
 35 52  2  0  0  0  0
 34 53  1  0  0  0  0
 29 54  2  0  0  0  0
 27 55  1  0  0  0  0
 55 56  1  0  0  0  0
 56 57  1  0  0  0  0
 57 58  1  0  0  0  0
 58 59  1  0  0  0  0
 59 60  1  0  0  0  0
 56 61  1  0  0  0  0
 60 61  1  0  0  0  0
 26 62  2  0  0  0  0
 25 63  1  0  0  0  0
 63 64  1  0  0  0  0
 23 65  1  0  0  0  0
 64 65  1  0  0  0  0
 22 66  2  0  0  0  0
 15 67  4  0  0  0  0
 12 68  1  0  0  0  0
 67 68  4  0  0  0  0
 68 69  4  0  0  0  0
 69 70  2  0  0  0  0
 58 71  1  0  0  0  0
 70 71  4  0  0  0  0
 67 72  4  0  0  0  0
 71 72  4  0  0  0  0
 36 73  1  0  0  0  0
  1 74  1  0  0  0  0
  1 75  1  0  0  0  0
  1 76  1  0  0  0  0
  2 77  1  0  0  0  0
  4 78  1  0  0  0  0
  4 79  1  0  0  0  0
  4 80  1  0  0  0  0
  7 81  1  0  0  0  0
  8 82  1  0  0  0  0
  9 83  1  0  0  0  0
 13 84  1  0  0  0  0
 13 85  1  0  0  0  0
 14 86  1  0  0  0  0
 14 87  1  0  0  0  0
 14 88  1  0  0  0  0
 16 89  1  0  0  0  0
 16 90  1  0  0  0  0
 18 91  1  0  0  0  0
 18 92  1  0  0  0  0
 18 93  1  0  0  0  0
 19 94  1  0  0  0  0
 19 95  1  0  0  0  0
 19 96  1  0  0  0  0
 20 97  1  0  0  0  0
 20 98  1  0  0  0  0
 23 99  1  0  0  0  0
 24100  1  0  0  0  0
 27101  1  0  0  0  0
 28102  1  0  0  0  0
 30103  1  0  0  0  0
 31104  1  0  0  0  0
 32105  1  0  0  0  0
 32106  1  0  0  0  0
 32107  1  0  0  0  0
 33108  1  0  0  0  0
 33109  1  0  0  0  0
 33110  1  0  0  0  0
 37111  1  0  0  0  0
 37112  1  0  0  0  0
 38113  1  0  0  0  0
 38114  1  0  0  0  0
 45115  1  0  0  0  0
 45116  1  0  0  0  0
 45117  1  0  0  0  0
 46118  1  0  0  0  0
 46119  1  0  0  0  0
 46120  1  0  0  0  0
 47121  1  0  0  0  0
 47122  1  0  0  0  0
 47123  1  0  0  0  0
 48124  1  0  0  0  0
 48125  1  0  0  0  0
 48126  1  0  0  0  0
 50127  1  0  0  0  0
 50128  1  0  0  0  0
 51129  1  0  0  0  0
 51130  1  0  0  0  0
 53131  1  0  0  0  0
 53132  1  0  0  0  0
 53133  1  0  0  0  0
 55134  1  0  0  0  0
 55135  1  0  0  0  0
 56136  1  0  0  0  0
 57137  1  0  0  0  0
 57138  1  0  0  0  0
 59139  1  0  0  0  0
 59140  1  0  0  0  0
 60141  1  0  0  0  0
 60142  1  0  0  0  0
 63143  1  0  0  0  0
 63144  1  0  0  0  0
 64145  1  0  0  0  0
 64146  1  0  0  0  0
 65147  1  0  0  0  0
 65148  1  0  0  0  0
 69149  1  0  0  0  0
 70150  1  0  0  0  0
 72151  1  0  0  0  0
M  END
$$$$
