mol_bioactive_3
     RDKit          3D

151157  0  0  0  0  0  0  0  0999 V2000
   -0.4285   15.0436  -12.9706 C   0  0  0  0  0  0  0  0  0  0  0  0
   -0.4009   14.7377  -11.4733 C   0  0  2  0  0  0  0  0  0  0  0  0
   -0.5708   15.9475  -10.7121 O   0  0  0  0  0  0  0  0  0  0  0  0
   -1.9200   16.3612  -10.6188 C   0  0  0  0  0  0  0  0  0  0  0  0
    0.9369   14.1044  -11.0858 C   0  0  0  0  0  0  0  0  0  0  0  0
    2.0603   14.7529  -11.5396 N   0  0  0  0  0  0  0  0  0  0  0  0
    3.2597   14.2121  -11.2534 C   0  0  0  0  0  0  0  0  0  0  0  0
    3.4282   13.0412  -10.5457 C   0  0  0  0  0  0  0  0  0  0  0  0
    2.2913   12.3892  -10.0817 C   0  0  0  0  0  0  0  0  0  0  0  0
    1.0172   12.9196  -10.3307 C   0  0  0  0  0  0  0  0  0  0  0  0
   -0.1616   12.2037   -9.8431 C   0  0  0  0  0  0  0  0  0  0  0  0
   -0.6448   11.0504  -10.4499 N   0  0  0  0  0  0  0  0  0  0  0  0
   -0.0222   10.3418  -11.5657 C   0  0  0  0  0  0  0  0  0  0  0  0
    0.8162    9.1572  -11.1099 C   0  0  0  0  0  0  0  0  0  0  0  0
   -1.0483   12.5438   -8.8236 C   0  0  0  0  0  0  0  0  0  0  0  0
   -1.0134   13.7014   -7.8479 C   0  0  0  0  0  0  0  0  0  0  0  0
    0.0560   13.7329   -6.7268 C   0  0  0  0  0  0  0  0  0  0  0  0
   -0.4391   14.7195   -5.6455 C   0  0  0  0  0  0  0  0  0  0  0  0
    1.3899   14.2761   -7.2596 C   0  0  0  0  0  0  0  0  0  0  0  0
    0.3100   12.3354   -6.0939 C   0  0  0  0  0  0  0  0  0  0  0  0
   -0.7979   11.8849   -5.3002 O   0  0  0  0  0  0  0  0  0  0  0  0
   -0.9057   10.5413   -5.1508 C   0  0  0  0  0  0  0  0  0  0  0  0
   -1.9263   10.1990   -4.0568 C   0  0  1  0  0  0  0  0  0  0  0  0
   -2.3356    8.7852   -4.2075 N   0  0  0  0  0  0  0  0  0  0  0  0
   -3.1668    8.3374   -3.1629 N   0  0  0  0  0  0  0  0  0  0  0  0
   -4.5009    7.9363   -3.3076 C   0  0  0  0  0  0  0  0  0  0  0  0
   -5.2014    8.2723   -4.6423 C   0  0  1  0  0  0  0  0  0  0  0  0
   -6.3340    7.3791   -4.8418 N   0  0  0  0  0  0  0  0  0  0  0  0
   -6.2156    6.2015   -5.5470 C   0  0  0  0  0  0  0  0  0  0  0  0
   -7.5205    5.3669   -5.5752 C   0  0  2  0  0  0  0  0  0  0  0  0
   -7.3065    3.9052   -5.1097 C   0  0  0  0  0  0  0  0  0  0  0  0
   -8.6270    3.1249   -5.1783 C   0  0  0  0  0  0  0  0  0  0  0  0
   -6.7758    3.8816   -3.6748 C   0  0  0  0  0  0  0  0  0  0  0  0
   -8.1298    5.4863   -6.9259 N   0  0  0  0  0  0  0  0  0  0  0  0
   -9.1253    6.4613   -7.0858 C   0  0  0  0  0  0  0  0  0  0  0  0
   -9.7736    6.6619   -8.4718 C   0  0  0  0  0  0  0  0  0  0  0  0
  -10.5917    7.9633   -8.4707 C   0  0  0  0  0  0  0  0  0  0  0  0
  -11.3473    8.1569   -9.7763 C   0  0  0  0  0  0  0  0  0  0  0  0
  -12.1235    6.9703  -10.1222 N   0  0  0  0  0  0  0  0  0  0  0  0
  -13.3339    7.0241  -10.8020 C   0  0  0  0  0  0  0  0  0  0  0  0
  -14.0612    8.2763  -10.8584 C   0  0  0  0  0  0  0  0  0  0  0  0
  -14.7378    9.2680  -10.9142 C   0  0  0  0  0  0  0  0  0  0  0  0
  -15.6448   10.4399  -10.9938 C   0  0  0  0  0  0  0  0  0  0  0  0
  -15.9168   11.0365   -9.6597 N   0  0  0  0  0  0  0  0  0  0  0  0
  -16.7452   10.1975   -8.7858 C   0  0  0  0  0  0  0  0  0  0  0  0
  -14.7275   11.4710   -8.9260 C   0  0  0  0  0  0  0  0  0  0  0  0
  -15.0096   11.4953  -11.9160 C   0  0  0  0  0  0  0  0  0  0  0  0
  -16.9511    9.9831  -11.6741 C   0  0  0  0  0  0  0  0  0  0  0  0
  -13.8599    6.0573  -11.3422 O   0  0  0  0  0  0  0  0  0  0  0  0
  -11.3927    5.7138  -10.1411 C   0  0  0  0  0  0  0  0  0  0  0  0
  -10.6750    5.4764   -8.8264 C   0  0  0  0  0  0  0  0  0  0  0  0
   -9.5366    7.1052   -6.1128 O   0  0  0  0  0  0  0  0  0  0  0  0
   -7.3598    4.9928   -8.0605 C   0  0  0  0  0  0  0  0  0  0  0  0
   -5.2026    5.8915   -6.1709 O   0  0  0  0  0  0  0  0  0  0  0  0
   -5.7172    9.7089   -4.5716 C   0  0  0  0  0  0  0  0  0  0  0  0
   -5.4810   10.5212   -5.8426 C   0  0  1  0  0  0  0  0  0  0  0  0
   -5.9229    9.8132   -7.1463 C   0  0  0  0  0  0  0  0  0  0  0  0
   -5.7588   10.7317   -8.2936 N   0  0  0  0  0  0  0  0  0  0  0  0
   -6.3657   12.0665   -8.0760 C   0  0  0  0  0  0  0  0  0  0  0  0
   -7.0135   12.1797   -6.6828 C   0  0  0  0  0  0  0  0  0  0  0  0
   -6.1169   11.8058   -5.6270 O   0  0  0  0  0  0  0  0  0  0  0  0
   -5.1485    7.4377   -2.3806 O   0  0  0  0  0  0  0  0  0  0  0  0
   -2.5259    8.3592   -1.8456 C   0  0  0  0  0  0  0  0  0  0  0  0
   -2.1411    9.8019   -1.5372 C   0  0  0  0  0  0  0  0  0  0  0  0
   -1.2836   10.3926   -2.6735 C   0  0  0  0  0  0  0  0  0  0  0  0
   -0.2569    9.7141   -5.7895 O   0  0  0  0  0  0  0  0  0  0  0  0
   -2.1792   11.6616   -8.9604 C   0  0  0  0  0  0  0  0  0  0  0  0
   -1.8937   10.7294   -9.9511 C   0  0  0  0  0  0  0  0  0  0  0  0
   -2.8070    9.7289  -10.3104 C   0  0  0  0  0  0  0  0  0  0  0  0
   -4.0767    9.7518   -9.7136 C   0  0  0  0  0  0  0  0  0  0  0  0
   -4.4391   10.7198   -8.7769 C   0  0  0  0  0  0  0  0  0  0  0  0
   -3.4559   11.6263   -8.3535 C   0  0  0  0  0  0  0  0  0  0  0  0
   -8.8277    6.7829   -9.4573 F   0  0  0  0  0  0  0  0  0  0  0  0
    0.2803   15.8355  -13.2326 H   0  0  0  0  0  0  0  0  0  0  0  0
   -0.1919   14.1541  -13.5646 H   0  0  0  0  0  0  0  0  0  0  0  0
   -1.4183   15.3966  -13.2788 H   0  0  0  0  0  0  0  0  0  0  0  0
   -1.2235   14.0519  -11.2600 H   0  0  0  0  0  0  0  0  0  0  0  0
   -2.5175   15.6102  -10.0891 H   0  0  0  0  0  0  0  0  0  0  0  0
   -1.9535   17.2935  -10.0416 H   0  0  0  0  0  0  0  0  0  0  0  0
   -2.3487   16.5687  -11.6031 H   0  0  0  0  0  0  0  0  0  0  0  0
    4.1108   14.7687  -11.6278 H   0  0  0  0  0  0  0  0  0  0  0  0
    4.4137   12.6432  -10.3588 H   0  0  0  0  0  0  0  0  0  0  0  0
    2.3960   11.4774   -9.5062 H   0  0  0  0  0  0  0  0  0  0  0  0
   -0.8213    9.9973  -12.2285 H   0  0  0  0  0  0  0  0  0  0  0  0
    0.5778   11.0451  -12.1474 H   0  0  0  0  0  0  0  0  0  0  0  0
    1.6989    9.4885  -10.5586 H   0  0  0  0  0  0  0  0  0  0  0  0
    0.2457    8.4855  -10.4632 H   0  0  0  0  0  0  0  0  0  0  0  0
    1.1612    8.5874  -11.9778 H   0  0  0  0  0  0  0  0  0  0  0  0
   -0.9689   14.6280   -8.4242 H   0  0  0  0  0  0  0  0  0  0  0  0
   -1.9933   13.7417   -7.3569 H   0  0  0  0  0  0  0  0  0  0  0  0
    0.2941   14.8302   -4.8421 H   0  0  0  0  0  0  0  0  0  0  0  0
   -0.6133   15.7067   -6.0820 H   0  0  0  0  0  0  0  0  0  0  0  0
   -1.3765   14.3898   -5.1913 H   0  0  0  0  0  0  0  0  0  0  0  0
    2.0113   14.6800   -6.4527 H   0  0  0  0  0  0  0  0  0  0  0  0
    1.9822   13.4899   -7.7288 H   0  0  0  0  0  0  0  0  0  0  0  0
    1.2360   15.0796   -7.9862 H   0  0  0  0  0  0  0  0  0  0  0  0
    0.5771   11.6151   -6.8778 H   0  0  0  0  0  0  0  0  0  0  0  0
    1.1705   12.4156   -5.4148 H   0  0  0  0  0  0  0  0  0  0  0  0
   -2.8007   10.8420   -4.1782 H   0  0  0  0  0  0  0  0  0  0  0  0
   -2.6197    8.5441   -5.1527 H   0  0  0  0  0  0  0  0  0  0  0  0
   -4.5021    8.1209   -5.4616 H   0  0  0  0  0  0  0  0  0  0  0  0
   -7.0434    7.4006   -4.1138 H   0  0  0  0  0  0  0  0  0  0  0  0
   -8.2111    5.8119   -4.8452 H   0  0  0  0  0  0  0  0  0  0  0  0
   -6.5678    3.3974   -5.7436 H   0  0  0  0  0  0  0  0  0  0  0  0
   -9.4501    3.7201   -4.7727 H   0  0  0  0  0  0  0  0  0  0  0  0
   -8.8726    2.8752   -6.2150 H   0  0  0  0  0  0  0  0  0  0  0  0
   -8.5679    2.1925   -4.6135 H   0  0  0  0  0  0  0  0  0  0  0  0
   -7.4578    4.4001   -2.9891 H   0  0  0  0  0  0  0  0  0  0  0  0
   -6.6608    2.8532   -3.3186 H   0  0  0  0  0  0  0  0  0  0  0  0
   -5.7967    4.3612   -3.6058 H   0  0  0  0  0  0  0  0  0  0  0  0
  -11.3209    7.9426   -7.6507 H   0  0  0  0  0  0  0  0  0  0  0  0
   -9.9288    8.8162   -8.3096 H   0  0  0  0  0  0  0  0  0  0  0  0
  -11.9872    9.0351   -9.6861 H   0  0  0  0  0  0  0  0  0  0  0  0
  -10.6506    8.3405  -10.6022 H   0  0  0  0  0  0  0  0  0  0  0  0
  -16.8904   10.6797   -7.8079 H   0  0  0  0  0  0  0  0  0  0  0  0
  -17.7513   10.0694   -9.1936 H   0  0  0  0  0  0  0  0  0  0  0  0
  -16.3049    9.2120   -8.6066 H   0  0  0  0  0  0  0  0  0  0  0  0
  -15.0164   12.0027   -8.0140 H   0  0  0  0  0  0  0  0  0  0  0  0
  -14.0853   10.6349   -8.6317 H   0  0  0  0  0  0  0  0  0  0  0  0
  -14.1275   12.1864   -9.4972 H   0  0  0  0  0  0  0  0  0  0  0  0
  -14.0037   11.7884  -11.5954 H   0  0  0  0  0  0  0  0  0  0  0  0
  -14.9010   11.1193  -12.9450 H   0  0  0  0  0  0  0  0  0  0  0  0
  -15.6264   12.3976  -11.9613 H   0  0  0  0  0  0  0  0  0  0  0  0
  -17.3816    9.0999  -11.1847 H   0  0  0  0  0  0  0  0  0  0  0  0
  -17.6998   10.7771  -11.6594 H   0  0  0  0  0  0  0  0  0  0  0  0
  -16.7829    9.7016  -12.7207 H   0  0  0  0  0  0  0  0  0  0  0  0
  -12.0716    4.8741  -10.3340 H   0  0  0  0  0  0  0  0  0  0  0  0
  -10.6828    5.7530  -10.9787 H   0  0  0  0  0  0  0  0  0  0  0  0
  -10.1042    4.5439   -8.9131 H   0  0  0  0  0  0  0  0  0  0  0  0
  -11.4103    5.3078   -8.0219 H   0  0  0  0  0  0  0  0  0  0  0  0
   -8.0094    4.4440   -8.7475 H   0  0  0  0  0  0  0  0  0  0  0  0
   -6.8955    5.8340   -8.5874 H   0  0  0  0  0  0  0  0  0  0  0  0
   -6.5713    4.3026   -7.7332 H   0  0  0  0  0  0  0  0  0  0  0  0
   -6.7925    9.7301   -4.3323 H   0  0  0  0  0  0  0  0  0  0  0  0
   -5.2450   10.2576   -3.7438 H   0  0  0  0  0  0  0  0  0  0  0  0
   -4.4043   10.7301   -5.8994 H   0  0  0  0  0  0  0  0  0  0  0  0
   -5.3816    8.8784   -7.3180 H   0  0  0  0  0  0  0  0  0  0  0  0
   -6.9841    9.5364   -7.0750 H   0  0  0  0  0  0  0  0  0  0  0  0
   -5.6532   12.8920   -8.1902 H   0  0  0  0  0  0  0  0  0  0  0  0
   -7.1410   12.2222   -8.8387 H   0  0  0  0  0  0  0  0  0  0  0  0
   -7.3329   13.2140   -6.4976 H   0  0  0  0  0  0  0  0  0  0  0  0
   -7.9122   11.5535   -6.6234 H   0  0  0  0  0  0  0  0  0  0  0  0
   -3.1980    7.9725   -1.0766 H   0  0  0  0  0  0  0  0  0  0  0  0
   -1.6426    7.7142   -1.8873 H   0  0  0  0  0  0  0  0  0  0  0  0
   -3.0461   10.4117   -1.4308 H   0  0  0  0  0  0  0  0  0  0  0  0
   -1.5899    9.8547   -0.5933 H   0  0  0  0  0  0  0  0  0  0  0  0
   -0.2923    9.9170   -2.6479 H   0  0  0  0  0  0  0  0  0  0  0  0
   -1.1132   11.4625   -2.4860 H   0  0  0  0  0  0  0  0  0  0  0  0
   -2.5742    8.9835  -11.0616 H   0  0  0  0  0  0  0  0  0  0  0  0
   -4.8150    9.0152  -10.0305 H   0  0  0  0  0  0  0  0  0  0  0  0
   -3.6782   12.3501   -7.5775 H   0  0  0  0  0  0  0  0  0  0  0  0
  1  2  1  0
  2  3  1  0
  2  5  1  0
  3  4  1  0
  5  6  2  0
  5 10  1  0
  6  7  1  0
  7  8  2  0
  8  9  1  0
  9 10  2  0
 10 11  1  0
 11 12  1  0
 11 15  2  0
 12 13  1  0
 12 68  1  0
 13 14  1  0
 15 16  1  0
 15 67  1  0
 16 17  1  0
 17 18  1  0
 17 19  1  0
 17 20  1  0
 20 21  1  0
 21 22  1  0
 22 23  1  0
 22 66  2  0
 23 24  1  0
 23 65  1  0
 24 25  1  0
 25 26  1  0
 25 63  1  0
 26 27  1  0
 26 62  2  0
 27 28  1  0
 27 55  1  0
 28 29  1  0
 29 30  1  0
 29 54  2  0
 30 31  1  0
 30 34  1  0
 31 32  1  0
 31 33  1  0
 34 35  1  0
 34 53  1  0
 35 36  1  0
 35 52  2  0
 36 37  1  0
 36 51  1  0
 36 73  1  0
 37 38  1  0
 38 39  1  0
 39 40  1  0
 39 50  1  0
 40 41  1  0
 40 49  2  0
 42 43  1  0
 43 44  1  0
 43 47  1  0
 43 48  1  0
 44 45  1  0
 44 46  1  0
 50 51  1  0
 55 56  1  0
 56 57  1  0
 56 61  1  0
 57 58  1  0
 58 59  1  0
 58 71  1  0
 59 60  1  0
 60 61  1  0
 63 64  1  0
 64 65  1  0
 67 68  2  0
 67 72  1  0
 68 69  1  0
 69 70  2  0
 70 71  1  0
 71 72  2  0
 41 42  3  0
  1 74  1  0
  1 75  1  0
  1 76  1  0
  2 77  1  6
  4 78  1  0
  4 79  1  0
  4 80  1  0
  7 81  1  0
  8 82  1  0
  9 83  1  0
 13 84  1  0
 13 85  1  0
 14 86  1  0
 14 87  1  0
 14 88  1  0
 16 89  1  0
 16 90  1  0
 18 91  1  0
 18 92  1  0
 18 93  1  0
 19 94  1  0
 19 95  1  0
 19 96  1  0
 20 97  1  0
 20 98  1  0
 23 99  1  1
 24100  1  0
 27101  1  6
 28102  1  0
 30103  1  1
 31104  1  0
 32105  1  0
 32106  1  0
 32107  1  0
 33108  1  0
 33109  1  0
 33110  1  0
 37111  1  0
 37112  1  0
 38113  1  0
 38114  1  0
 45115  1  0
 45116  1  0
 45117  1  0
 46118  1  0
 46119  1  0
 46120  1  0
 47121  1  0
 47122  1  0
 47123  1  0
 48124  1  0
 48125  1  0
 48126  1  0
 50127  1  0
 50128  1  0
 51129  1  0
 51130  1  0
 53131  1  0
 53132  1  0
 53133  1  0
 55134  1  0
 55135  1  0
 56136  1  6
 57137  1  0
 57138  1  0
 59139  1  0
 59140  1  0
 60141  1  0
 60142  1  0
 63143  1  0
 63144  1  0
 64145  1  0
 64146  1  0
 65147  1  0
 65148  1  0
 69149  1  0
 70150  1  0
 72151  1  0
M  END
$$$$
