mol_bioactive_3
     RDKit          3D

151157  0  0  0  0  0  0  0  0999 V2000
    2.5233    7.9241   -8.1120 C   0  0  0  0  0  0  0  0  0  0  0  0
    2.3313    6.4685   -7.6747 C   0  0  2  0  0  0  0  0  0  0  0  0
    3.5424    5.7341   -7.9147 O   0  0  0  0  0  0  0  0  0  0  0  0
    4.4897    5.8685   -6.8668 C   0  0  0  0  0  0  0  0  0  0  0  0
    1.1825    5.7877   -8.4167 C   0  0  0  0  0  0  0  0  0  0  0  0
    0.8696    6.2733   -9.6544 N   0  0  0  0  0  0  0  0  0  0  0  0
   -0.1486    5.6976  -10.3278 C   0  0  0  0  0  0  0  0  0  0  0  0
   -0.9049    4.6562   -9.8285 C   0  0  0  0  0  0  0  0  0  0  0  0
   -0.5862    4.1641   -8.5677 C   0  0  0  0  0  0  0  0  0  0  0  0
    0.4776    4.7133   -7.8428 C   0  0  0  0  0  0  0  0  0  0  0  0
    0.7880    4.1656   -6.5156 C   0  0  0  0  0  0  0  0  0  0  0  0
    0.1276    4.5523   -5.3664 N   0  0  0  0  0  0  0  0  0  0  0  0
   -0.9737    5.5072   -5.2981 C   0  0  0  0  0  0  0  0  0  0  0  0
   -2.3286    4.8242   -5.2463 C   0  0  0  0  0  0  0  0  0  0  0  0
    1.7637    3.2373   -6.1474 C   0  0  0  0  0  0  0  0  0  0  0  0
    2.7283    2.5556   -7.0898 C   0  0  0  0  0  0  0  0  0  0  0  0
    2.3573    1.1290   -7.5890 C   0  0  0  0  0  0  0  0  0  0  0  0
    0.9163    1.0366   -8.1172 C   0  0  0  0  0  0  0  0  0  0  0  0
    3.3076    0.7902   -8.7639 C   0  0  0  0  0  0  0  0  0  0  0  0
    2.5427    0.0676   -6.4853 C   0  0  0  0  0  0  0  0  0  0  0  0
    3.9148    0.0577   -6.0653 O   0  0  0  0  0  0  0  0  0  0  0  0
    4.2162   -0.8502   -5.0966 C   0  0  0  0  0  0  0  0  0  0  0  0
    5.6799   -0.6901   -4.6852 C   0  0  1  0  0  0  0  0  0  0  0  0
    6.0177   -1.6815   -3.6537 N   0  0  0  0  0  0  0  0  0  0  0  0
    7.3128   -1.4504   -3.1458 N   0  0  0  0  0  0  0  0  0  0  0  0
    7.6243   -1.3726   -1.7852 C   0  0  0  0  0  0  0  0  0  0  0  0
    6.4806   -1.0411   -0.7937 C   0  0  1  0  0  0  0  0  0  0  0  0
    6.7485   -1.7656    0.4457 N   0  0  0  0  0  0  0  0  0  0  0  0
    6.5359   -3.1283    0.5035 C   0  0  0  0  0  0  0  0  0  0  0  0
    7.0325   -3.7960    1.8085 C   0  0  2  0  0  0  0  0  0  0  0  0
    7.5105   -5.2502    1.5525 C   0  0  0  0  0  0  0  0  0  0  0  0
    7.8186   -5.9858    2.8612 C   0  0  0  0  0  0  0  0  0  0  0  0
    8.7731   -5.2502    0.6756 C   0  0  0  0  0  0  0  0  0  0  0  0
    5.9438   -3.6663    2.8104 N   0  0  0  0  0  0  0  0  0  0  0  0
    5.9723   -2.5083    3.6032 C   0  0  0  0  0  0  0  0  0  0  0  0
    4.8194   -2.2506    4.6010 C   0  0  0  0  0  0  0  0  0  0  0  0
    4.9076   -3.2361    5.7796 C   0  0  0  0  0  0  0  0  0  0  0  0
    3.8299   -2.9242    6.8136 C   0  0  0  0  0  0  0  0  0  0  0  0
    3.9551   -1.5386    7.2417 N   0  0  0  0  0  0  0  0  0  0  0  0
    4.5179   -1.2678    8.4844 C   0  0  0  0  0  0  0  0  0  0  0  0
    4.8870    0.0956    8.7949 C   0  0  0  0  0  0  0  0  0  0  0  0
    5.2379    1.2210    9.0363 C   0  0  0  0  0  0  0  0  0  0  0  0
    5.7067    2.6025    9.3287 C   0  0  0  0  0  0  0  0  0  0  0  0
    6.8614    2.9017    8.4402 N   0  0  0  0  0  0  0  0  0  0  0  0
    6.5225    2.9876    7.0154 C   0  0  0  0  0  0  0  0  0  0  0  0
    7.6477    4.0771    8.8205 C   0  0  0  0  0  0  0  0  0  0  0  0
    6.1180    2.6150   10.8205 C   0  0  0  0  0  0  0  0  0  0  0  0
    4.5199    3.5716    9.1493 C   0  0  0  0  0  0  0  0  0  0  0  0
    4.7361   -2.1257    9.3311 O   0  0  0  0  0  0  0  0  0  0  0  0
    3.8126   -0.5579    6.1735 C   0  0  0  0  0  0  0  0  0  0  0  0
    4.8741   -0.7970    5.1056 C   0  0  0  0  0  0  0  0  0  0  0  0
    6.9369   -1.7337    3.5528 O   0  0  0  0  0  0  0  0  0  0  0  0
    4.6899   -4.3642    2.5215 C   0  0  0  0  0  0  0  0  0  0  0  0
    5.9235   -3.7383   -0.3731 O   0  0  0  0  0  0  0  0  0  0  0  0
    6.4647    0.4829   -0.5762 C   0  0  0  0  0  0  0  0  0  0  0  0
    5.0754    1.0953   -0.3485 C   0  0  1  0  0  0  0  0  0  0  0  0
    4.2990    1.3087   -1.6758 C   0  0  0  0  0  0  0  0  0  0  0  0
    2.9872    1.9089   -1.3681 N   0  0  0  0  0  0  0  0  0  0  0  0
    2.2180    1.0713   -0.4148 C   0  0  0  0  0  0  0  0  0  0  0  0
    3.0530    0.8547    0.8577 C   0  0  0  0  0  0  0  0  0  0  0  0
    4.3326    0.2728    0.5688 O   0  0  0  0  0  0  0  0  0  0  0  0
    8.7918   -1.4518   -1.3786 O   0  0  0  0  0  0  0  0  0  0  0  0
    8.3699   -1.6678   -4.1398 C   0  0  0  0  0  0  0  0  0  0  0  0
    8.1080   -0.8111   -5.3827 C   0  0  0  0  0  0  0  0  0  0  0  0
    6.6494   -0.9039   -5.8550 C   0  0  0  0  0  0  0  0  0  0  0  0
    3.4102   -1.6059   -4.5689 O   0  0  0  0  0  0  0  0  0  0  0  0
    1.7379    3.1425   -4.7103 C   0  0  0  0  0  0  0  0  0  0  0  0
    0.7005    3.9577   -4.2608 C   0  0  0  0  0  0  0  0  0  0  0  0
    0.3991    4.0876   -2.9003 C   0  0  0  0  0  0  0  0  0  0  0  0
    1.1803    3.3814   -1.9807 C   0  0  0  0  0  0  0  0  0  0  0  0
    2.2387    2.5472   -2.3620 C   0  0  0  0  0  0  0  0  0  0  0  0
    2.5160    2.4539   -3.7394 C   0  0  0  0  0  0  0  0  0  0  0  0
    3.5939   -2.4098    4.0036 F   0  0  0  0  0  0  0  0  0  0  0  0
    3.2435    8.4301   -7.4625 H   0  0  0  0  0  0  0  0  0  0  0  0
    2.9266    7.9838   -9.1291 H   0  0  0  0  0  0  0  0  0  0  0  0
    1.5841    8.4841   -8.0726 H   0  0  0  0  0  0  0  0  0  0  0  0
    2.0974    6.4782   -6.6031 H   0  0  0  0  0  0  0  0  0  0  0  0
    4.0649    5.5403   -5.9136 H   0  0  0  0  0  0  0  0  0  0  0  0
    5.3462    5.2301   -7.0985 H   0  0  0  0  0  0  0  0  0  0  0  0
    4.8418    6.9001   -6.7888 H   0  0  0  0  0  0  0  0  0  0  0  0
   -0.3465    6.1132  -11.3113 H   0  0  0  0  0  0  0  0  0  0  0  0
   -1.7177    4.2306  -10.4075 H   0  0  0  0  0  0  0  0  0  0  0  0
   -1.1615    3.3385   -8.1559 H   0  0  0  0  0  0  0  0  0  0  0  0
   -0.8192    6.1338   -4.4129 H   0  0  0  0  0  0  0  0  0  0  0  0
   -0.9148    6.1766   -6.1617 H   0  0  0  0  0  0  0  0  0  0  0  0
   -2.4217    4.1927   -4.3574 H   0  0  0  0  0  0  0  0  0  0  0  0
   -3.1274    5.5712   -5.2179 H   0  0  0  0  0  0  0  0  0  0  0  0
   -2.4880    4.1894   -6.1227 H   0  0  0  0  0  0  0  0  0  0  0  0
    2.8508    3.1977   -7.9701 H   0  0  0  0  0  0  0  0  0  0  0  0
    3.7193    2.5411   -6.6176 H   0  0  0  0  0  0  0  0  0  0  0  0
    0.1804    1.2458   -7.3341 H   0  0  0  0  0  0  0  0  0  0  0  0
    0.7572    1.7330   -8.9461 H   0  0  0  0  0  0  0  0  0  0  0  0
    0.7013    0.0315   -8.4996 H   0  0  0  0  0  0  0  0  0  0  0  0
    4.3598    0.8634   -8.4689 H   0  0  0  0  0  0  0  0  0  0  0  0
    3.1323   -0.2269   -9.1365 H   0  0  0  0  0  0  0  0  0  0  0  0
    3.1547    1.4797   -9.6052 H   0  0  0  0  0  0  0  0  0  0  0  0
    1.8923    0.2752   -5.6286 H   0  0  0  0  0  0  0  0  0  0  0  0
    2.2895   -0.9279   -6.8740 H   0  0  0  0  0  0  0  0  0  0  0  0
    5.7822    0.3216   -4.2693 H   0  0  0  0  0  0  0  0  0  0  0  0
    5.2748   -1.8092   -2.9656 H   0  0  0  0  0  0  0  0  0  0  0  0
    5.5175   -1.3901   -1.1623 H   0  0  0  0  0  0  0  0  0  0  0  0
    7.3995   -1.3671    1.1159 H   0  0  0  0  0  0  0  0  0  0  0  0
    7.9079   -3.2349    2.1592 H   0  0  0  0  0  0  0  0  0  0  0  0
    6.7389   -5.8161    1.0168 H   0  0  0  0  0  0  0  0  0  0  0  0
    6.9207   -6.1078    3.4754 H   0  0  0  0  0  0  0  0  0  0  0  0
    8.2124   -6.9887    2.6588 H   0  0  0  0  0  0  0  0  0  0  0  0
    8.5646   -5.4452    3.4553 H   0  0  0  0  0  0  0  0  0  0  0  0
    9.0890   -6.2749    0.4505 H   0  0  0  0  0  0  0  0  0  0  0  0
    8.5972   -4.7437   -0.2778 H   0  0  0  0  0  0  0  0  0  0  0  0
    9.6050   -4.7428    1.1791 H   0  0  0  0  0  0  0  0  0  0  0  0
    4.7894   -4.2723    5.4460 H   0  0  0  0  0  0  0  0  0  0  0  0
    5.9008   -3.1666    6.2436 H   0  0  0  0  0  0  0  0  0  0  0  0
    2.8309   -3.0577    6.3840 H   0  0  0  0  0  0  0  0  0  0  0  0
    3.9155   -3.6107    7.6605 H   0  0  0  0  0  0  0  0  0  0  0  0
    5.9476    2.1208    6.6727 H   0  0  0  0  0  0  0  0  0  0  0  0
    5.9568    3.8955    6.7734 H   0  0  0  0  0  0  0  0  0  0  0  0
    7.4396    2.9943    6.4126 H   0  0  0  0  0  0  0  0  0  0  0  0
    8.1074    3.9546    9.8050 H   0  0  0  0  0  0  0  0  0  0  0  0
    8.4849    4.2168    8.1259 H   0  0  0  0  0  0  0  0  0  0  0  0
    7.0533    4.9976    8.8177 H   0  0  0  0  0  0  0  0  0  0  0  0
    5.3078    2.2396   11.4579 H   0  0  0  0  0  0  0  0  0  0  0  0
    6.9883    1.9708   11.0014 H   0  0  0  0  0  0  0  0  0  0  0  0
    6.3576    3.6233   11.1736 H   0  0  0  0  0  0  0  0  0  0  0  0
    3.6955    3.3103    9.8249 H   0  0  0  0  0  0  0  0  0  0  0  0
    4.8033    4.6076    9.3672 H   0  0  0  0  0  0  0  0  0  0  0  0
    4.1073    3.5368    8.1347 H   0  0  0  0  0  0  0  0  0  0  0  0
    2.8082   -0.6739    5.7481 H   0  0  0  0  0  0  0  0  0  0  0  0
    3.8797    0.4651    6.5511 H   0  0  0  0  0  0  0  0  0  0  0  0
    5.8625   -0.5733    5.5254 H   0  0  0  0  0  0  0  0  0  0  0  0
    4.7047   -0.1043    4.2718 H   0  0  0  0  0  0  0  0  0  0  0  0
    4.1038   -4.5198    3.4255 H   0  0  0  0  0  0  0  0  0  0  0  0
    4.1019   -3.7668    1.8184 H   0  0  0  0  0  0  0  0  0  0  0  0
    4.8878   -5.3509    2.0933 H   0  0  0  0  0  0  0  0  0  0  0  0
    7.0792    0.7155    0.3038 H   0  0  0  0  0  0  0  0  0  0  0  0
    6.9394    1.0075   -1.4170 H   0  0  0  0  0  0  0  0  0  0  0  0
    5.2204    2.0781    0.1237 H   0  0  0  0  0  0  0  0  0  0  0  0
    4.8862    1.9691   -2.3246 H   0  0  0  0  0  0  0  0  0  0  0  0
    4.1451    0.3505   -2.1863 H   0  0  0  0  0  0  0  0  0  0  0  0
    1.2630    1.5183   -0.1247 H   0  0  0  0  0  0  0  0  0  0  0  0
    2.0076    0.1040   -0.8860 H   0  0  0  0  0  0  0  0  0  0  0  0
    3.2078    1.8027    1.3884 H   0  0  0  0  0  0  0  0  0  0  0  0
    2.5279    0.1761    1.5366 H   0  0  0  0  0  0  0  0  0  0  0  0
    9.3515   -1.4253   -3.7212 H   0  0  0  0  0  0  0  0  0  0  0  0
    8.3716   -2.7341   -4.3945 H   0  0  0  0  0  0  0  0  0  0  0  0
    8.3260    0.2368   -5.1405 H   0  0  0  0  0  0  0  0  0  0  0  0
    8.7866   -1.1021   -6.1908 H   0  0  0  0  0  0  0  0  0  0  0  0
    6.4746   -1.8874   -6.3147 H   0  0  0  0  0  0  0  0  0  0  0  0
    6.4751   -0.1608   -6.6418 H   0  0  0  0  0  0  0  0  0  0  0  0
   -0.4006    4.7318   -2.5488 H   0  0  0  0  0  0  0  0  0  0  0  0
    0.9658    3.5336   -0.9253 H   0  0  0  0  0  0  0  0  0  0  0  0
    3.3336    1.8407   -4.0915 H   0  0  0  0  0  0  0  0  0  0  0  0
  1  2  1  0
  2  3  1  0
  2  5  1  0
  3  4  1  0
  5  6  2  0
  5 10  1  0
  6  7  1  0
  7  8  2  0
  8  9  1  0
  9 10  2  0
 10 11  1  0
 11 12  1  0
 11 15  2  0
 12 13  1  0
 12 68  1  0
 13 14  1  0
 15 16  1  0
 15 67  1  0
 16 17  1  0
 17 18  1  0
 17 19  1  0
 17 20  1  0
 20 21  1  0
 21 22  1  0
 22 23  1  0
 22 66  2  0
 23 24  1  0
 23 65  1  0
 24 25  1  0
 25 26  1  0
 25 63  1  0
 26 27  1  0
 26 62  2  0
 27 28  1  0
 27 55  1  0
 28 29  1  0
 29 30  1  0
 29 54  2  0
 30 31  1  0
 30 34  1  0
 31 32  1  0
 31 33  1  0
 34 35  1  0
 34 53  1  0
 35 36  1  0
 35 52  2  0
 36 37  1  0
 36 51  1  0
 36 73  1  0
 37 38  1  0
 38 39  1  0
 39 40  1  0
 39 50  1  0
 40 41  1  0
 40 49  2  0
 42 43  1  0
 43 44  1  0
 43 47  1  0
 43 48  1  0
 44 45  1  0
 44 46  1  0
 50 51  1  0
 55 56  1  0
 56 57  1  0
 56 61  1  0
 57 58  1  0
 58 59  1  0
 58 71  1  0
 59 60  1  0
 60 61  1  0
 63 64  1  0
 64 65  1  0
 67 68  2  0
 67 72  1  0
 68 69  1  0
 69 70  2  0
 70 71  1  0
 71 72  2  0
  1 74  1  0
  1 75  1  0
  1 76  1  0
  2 77  1  1
  4 78  1  0
  4 79  1  0
  4 80  1  0
  7 81  1  0
  8 82  1  0
  9 83  1  0
 13 84  1  0
 13 85  1  0
 14 86  1  0
 14 87  1  0
 14 88  1  0
 16 89  1  0
 16 90  1  0
 18 91  1  0
 18 92  1  0
 18 93  1  0
 19 94  1  0
 19 95  1  0
 19 96  1  0
 20 97  1  0
 20 98  1  0
 23 99  1  1
 24100  1  0
 27101  1  6
 28102  1  0
 30103  1  1
 31104  1  0
 32105  1  0
 32106  1  0
 32107  1  0
 33108  1  0
 33109  1  0
 33110  1  0
 37111  1  0
 37112  1  0
 38113  1  0
 38114  1  0
 45115  1  0
 45116  1  0
 45117  1  0
 46118  1  0
 46119  1  0
 46120  1  0
 47121  1  0
 47122  1  0
 47123  1  0
 48124  1  0
 48125  1  0
 48126  1  0
 50127  1  0
 50128  1  0
 51129  1  0
 51130  1  0
 53131  1  0
 53132  1  0
 53133  1  0
 55134  1  0
 55135  1  0
 56136  1  1
 57137  1  0
 57138  1  0
 59139  1  0
 59140  1  0
 60141  1  0
 60142  1  0
 63143  1  0
 63144  1  0
 64145  1  0
 64146  1  0
 65147  1  0
 65148  1  0
 69149  1  0
 70150  1  0
 72151  1  0
 41 42  3  0
M  END
$$$$
