 xtb: 6.7.1 (edcfbbe)
          08182500203D

151157  0     0  0            999 V2000
    2.2224    7.5582   -7.8177 C   0  0  0  0  0  0  0  0  0  0  0  0
    2.0994    6.1276   -7.2972 C   0  0  0  0  0  0  0  0  0  0  0  0
    3.2918    5.3803   -7.4901 O   0  0  0  0  0  0  0  0  0  0  0  0
    4.2724    5.5833   -6.5075 C   0  0  0  0  0  0  0  0  0  0  0  0
    0.9974    5.3719   -8.0149 C   0  0  0  0  0  0  0  0  0  0  0  0
    0.6234    5.8264   -9.1981 N   0  0  0  0  0  0  0  0  0  0  0  0
   -0.3389    5.2062   -9.8554 C   0  0  0  0  0  0  0  0  0  0  0  0
   -1.0072    4.1011   -9.3543 C   0  0  0  0  0  0  0  0  0  0  0  0
   -0.6244    3.6192   -8.1142 C   0  0  0  0  0  0  0  0  0  0  0  0
    0.4113    4.2423   -7.4251 C   0  0  0  0  0  0  0  0  0  0  0  0
    0.8449    3.7654   -6.1034 C   0  0  0  0  0  0  0  0  0  0  0  0
    0.1744    4.1719   -4.9711 N   0  0  0  0  0  0  0  0  0  0  0  0
   -0.9992    5.0019   -4.9294 C   0  0  0  0  0  0  0  0  0  0  0  0
   -2.2775    4.1767   -4.7849 C   0  0  0  0  0  0  0  0  0  0  0  0
    1.9149    2.9713   -5.7666 C   0  0  0  0  0  0  0  0  0  0  0  0
    2.8862    2.3508   -6.7188 C   0  0  0  0  0  0  0  0  0  0  0  0
    2.5740    0.8967   -7.1437 C   0  0  0  0  0  0  0  0  0  0  0  0
    1.1074    0.7389   -7.5396 C   0  0  0  0  0  0  0  0  0  0  0  0
    3.4628    0.5336   -8.3359 C   0  0  0  0  0  0  0  0  0  0  0  0
    2.8617   -0.0716   -5.9918 C   0  0  0  0  0  0  0  0  0  0  0  0
    4.2639   -0.0681   -5.7052 O   0  0  0  0  0  0  0  0  0  0  0  0
    4.6575   -0.7494   -4.6403 C   0  0  0  0  0  0  0  0  0  0  0  0
    6.1561   -0.6232   -4.4088 C   0  0  0  0  0  0  0  0  0  0  0  0
    6.6689   -1.7807   -3.6967 N   0  0  0  0  0  0  0  0  0  0  0  0
    7.9290   -1.4792   -3.1753 N   0  0  0  0  0  0  0  0  0  0  0  0
    8.1639   -0.8497   -2.0008 C   0  0  0  0  0  0  0  0  0  0  0  0
    6.9479   -0.6776   -1.0679 C   0  0  0  0  0  0  0  0  0  0  0  0
    7.0068   -1.6670   -0.0159 N   0  0  0  0  0  0  0  0  0  0  0  0
    6.4486   -2.8753   -0.1735 C   0  0  0  0  0  0  0  0  0  0  0  0
    6.4808   -3.7120    1.1082 C   0  0  0  0  0  0  0  0  0  0  0  0
    6.4324   -5.2195    0.8332 C   0  0  0  0  0  0  0  0  0  0  0  0
    6.2438   -5.9992    2.1311 C   0  0  0  0  0  0  0  0  0  0  0  0
    7.7354   -5.6250    0.1461 C   0  0  0  0  0  0  0  0  0  0  0  0
    5.3868   -3.2204    1.9477 N   0  0  0  0  0  0  0  0  0  0  0  0
    5.7229   -2.3555    2.9215 C   0  0  0  0  0  0  0  0  0  0  0  0
    4.6621   -1.8704    3.9225 C   0  0  0  0  0  0  0  0  0  0  0  0
    4.5575   -2.9037    5.0511 C   0  0  0  0  0  0  0  0  0  0  0  0
    3.6123   -2.3959    6.1418 C   0  0  0  0  0  0  0  0  0  0  0  0
    4.0397   -1.1014    6.6140 N   0  0  0  0  0  0  0  0  0  0  0  0
    4.4575   -0.9512    7.8954 C   0  0  0  0  0  0  0  0  0  0  0  0
    4.9134    0.3734    8.2448 C   0  0  0  0  0  0  0  0  0  0  0  0
    5.3398    1.4002    8.7060 C   0  0  0  0  0  0  0  0  0  0  0  0
    5.7538    2.6800    9.2746 C   0  0  0  0  0  0  0  0  0  0  0  0
    6.8794    3.2137    8.5004 N   0  0  0  0  0  0  0  0  0  0  0  0
    6.6778    3.2333    7.0686 C   0  0  0  0  0  0  0  0  0  0  0  0
    7.3879    4.4870    8.9600 C   0  0  0  0  0  0  0  0  0  0  0  0
    6.2082    2.3831   10.7143 C   0  0  0  0  0  0  0  0  0  0  0  0
    4.5058    3.5897    9.2984 C   0  0  0  0  0  0  0  0  0  0  0  0
    4.4315   -1.8518    8.7142 O   0  0  0  0  0  0  0  0  0  0  0  0
    4.1003   -0.0863    5.5941 C   0  0  0  0  0  0  0  0  0  0  0  0
    5.0657   -0.5047    4.4835 C   0  0  0  0  0  0  0  0  0  0  0  0
    6.8833   -2.0222    3.1229 O   0  0  0  0  0  0  0  0  0  0  0  0
    4.0409   -3.4388    1.4595 C   0  0  0  0  0  0  0  0  0  0  0  0
    5.9144   -3.2406   -1.2056 O   0  0  0  0  0  0  0  0  0  0  0  0
    6.9177    0.7436   -0.5032 C   0  0  0  0  0  0  0  0  0  0  0  0
    5.5008    1.2258   -0.1810 C   0  0  0  0  0  0  0  0  0  0  0  0
    4.6428    1.4109   -1.4443 C   0  0  0  0  0  0  0  0  0  0  0  0
    3.3279    1.8734   -1.0550 N   0  0  0  0  0  0  0  0  0  0  0  0
    2.7155    0.8981   -0.1684 C   0  0  0  0  0  0  0  0  0  0  0  0
    3.6017    0.7393    1.0643 C   0  0  0  0  0  0  0  0  0  0  0  0
    4.8976    0.3103    0.7127 O   0  0  0  0  0  0  0  0  0  0  0  0
    9.2776   -0.4887   -1.6681 O   0  0  0  0  0  0  0  0  0  0  0  0
    8.8959   -1.4224   -4.2564 C   0  0  0  0  0  0  0  0  0  0  0  0
    8.4808   -0.3212   -5.2411 C   0  0  0  0  0  0  0  0  0  0  0  0
    7.0186   -0.4903   -5.6681 C   0  0  0  0  0  0  0  0  0  0  0  0
    3.9211   -1.3387   -3.8919 O   0  0  0  0  0  0  0  0  0  0  0  0
    1.9199    2.8924   -4.3395 C   0  0  0  0  0  0  0  0  0  0  0  0
    0.8104    3.6409   -3.8826 C   0  0  0  0  0  0  0  0  0  0  0  0
    0.5348    3.7668   -2.5262 C   0  0  0  0  0  0  0  0  0  0  0  0
    1.3796    3.1492   -1.6363 C   0  0  0  0  0  0  0  0  0  0  0  0
    2.4988    2.4073   -2.0610 C   0  0  0  0  0  0  0  0  0  0  0  0
    2.7710    2.2857   -3.4126 C   0  0  0  0  0  0  0  0  0  0  0  0
    3.4004   -1.7252    3.3513 F   0  0  0  0  0  0  0  0  0  0  0  0
    2.9984    8.0942   -7.2771 H   0  0  0  0  0  0  0  0  0  0  0  0
    2.4681    7.5339   -8.8745 H   0  0  0  0  0  0  0  0  0  0  0  0
    1.2777    8.0781   -7.6880 H   0  0  0  0  0  0  0  0  0  0  0  0
    1.8632    6.1441   -6.2189 H   0  0  0  0  0  0  0  0  0  0  0  0
    3.8920    5.3259   -5.5105 H   0  0  0  0  0  0  0  0  0  0  0  0
    5.0969    4.9201   -6.7617 H   0  0  0  0  0  0  0  0  0  0  0  0
    4.6361    6.6166   -6.4939 H   0  0  0  0  0  0  0  0  0  0  0  0
   -0.5888    5.6275  -10.8203 H   0  0  0  0  0  0  0  0  0  0  0  0
   -1.8038    3.6338   -9.9119 H   0  0  0  0  0  0  0  0  0  0  0  0
   -1.1225    2.7645   -7.6793 H   0  0  0  0  0  0  0  0  0  0  0  0
   -0.9067    5.6892   -4.0824 H   0  0  0  0  0  0  0  0  0  0  0  0
   -1.0389    5.5933   -5.8490 H   0  0  0  0  0  0  0  0  0  0  0  0
   -2.2257    3.5566   -3.8932 H   0  0  0  0  0  0  0  0  0  0  0  0
   -3.1389    4.8343   -4.7066 H   0  0  0  0  0  0  0  0  0  0  0  0
   -2.4112    3.5299   -5.6482 H   0  0  0  0  0  0  0  0  0  0  0  0
    2.9208    2.9702   -7.6167 H   0  0  0  0  0  0  0  0  0  0  0  0
    3.8806    2.3587   -6.2679 H   0  0  0  0  0  0  0  0  0  0  0  0
    0.4581    0.9548   -6.6946 H   0  0  0  0  0  0  0  0  0  0  0  0
    0.8706    1.4221   -8.3507 H   0  0  0  0  0  0  0  0  0  0  0  0
    0.9106   -0.2772   -7.8747 H   0  0  0  0  0  0  0  0  0  0  0  0
    4.5114    0.6519   -8.0778 H   0  0  0  0  0  0  0  0  0  0  0  0
    3.2965   -0.4994   -8.6342 H   0  0  0  0  0  0  0  0  0  0  0  0
    3.2381    1.1783   -9.1820 H   0  0  0  0  0  0  0  0  0  0  0  0
    2.3096    0.2132   -5.0906 H   0  0  0  0  0  0  0  0  0  0  0  0
    2.5695   -1.0926   -6.2614 H   0  0  0  0  0  0  0  0  0  0  0  0
    6.2749    0.3061   -3.8109 H   0  0  0  0  0  0  0  0  0  0  0  0
    6.0441   -2.2085   -3.0147 H   0  0  0  0  0  0  0  0  0  0  0  0
    6.0230   -0.8792   -1.6128 H   0  0  0  0  0  0  0  0  0  0  0  0
    7.4176   -1.4080    0.8692 H   0  0  0  0  0  0  0  0  0  0  0  0
    7.4012   -3.4901    1.6583 H   0  0  0  0  0  0  0  0  0  0  0  0
    5.6114   -5.4410    0.1454 H   0  0  0  0  0  0  0  0  0  0  0  0
    5.2885   -5.7681    2.5949 H   0  0  0  0  0  0  0  0  0  0  0  0
    6.2779   -7.0677    1.9332 H   0  0  0  0  0  0  0  0  0  0  0  0
    7.0360   -5.7539    2.8354 H   0  0  0  0  0  0  0  0  0  0  0  0
    7.7231   -6.6879   -0.0821 H   0  0  0  0  0  0  0  0  0  0  0  0
    7.8599   -5.0763   -0.7838 H   0  0  0  0  0  0  0  0  0  0  0  0
    8.5887   -5.4200    0.7893 H   0  0  0  0  0  0  0  0  0  0  0  0
    4.1881   -3.8507    4.6548 H   0  0  0  0  0  0  0  0  0  0  0  0
    5.5555   -3.0611    5.4613 H   0  0  0  0  0  0  0  0  0  0  0  0
    2.5966   -2.3130    5.7371 H   0  0  0  0  0  0  0  0  0  0  0  0
    3.6084   -3.0779    6.9943 H   0  0  0  0  0  0  0  0  0  0  0  0
    6.3545    2.2509    6.7311 H   0  0  0  0  0  0  0  0  0  0  0  0
    5.9432    3.9852    6.7378 H   0  0  0  0  0  0  0  0  0  0  0  0
    7.6316    3.4625    6.5931 H   0  0  0  0  0  0  0  0  0  0  0  0
    7.5741    4.4571   10.0296 H   0  0  0  0  0  0  0  0  0  0  0  0
    8.3381    4.6708    8.4575 H   0  0  0  0  0  0  0  0  0  0  0  0
    6.7177    5.3317    8.7359 H   0  0  0  0  0  0  0  0  0  0  0  0
    5.5020    1.7038   11.1856 H   0  0  0  0  0  0  0  0  0  0  0  0
    7.1866    1.9108   10.6957 H   0  0  0  0  0  0  0  0  0  0  0  0
    6.2569    3.2916   11.3089 H   0  0  0  0  0  0  0  0  0  0  0  0
    3.7065    3.0976    9.8465 H   0  0  0  0  0  0  0  0  0  0  0  0
    4.7362    4.5320    9.7898 H   0  0  0  0  0  0  0  0  0  0  0  0
    4.1563    3.7908    8.2880 H   0  0  0  0  0  0  0  0  0  0  0  0
    3.0971    0.0465    5.1689 H   0  0  0  0  0  0  0  0  0  0  0  0
    4.4197    0.8565    6.0411 H   0  0  0  0  0  0  0  0  0  0  0  0
    6.0833   -0.5817    4.8652 H   0  0  0  0  0  0  0  0  0  0  0  0
    5.0532    0.2269    3.6745 H   0  0  0  0  0  0  0  0  0  0  0  0
    3.4011   -3.8617    2.2339 H   0  0  0  0  0  0  0  0  0  0  0  0
    3.5998   -2.5066    1.1039 H   0  0  0  0  0  0  0  0  0  0  0  0
    4.0829   -4.1281    0.6220 H   0  0  0  0  0  0  0  0  0  0  0  0
    7.5244    0.7741    0.4028 H   0  0  0  0  0  0  0  0  0  0  0  0
    7.3648    1.4327   -1.2217 H   0  0  0  0  0  0  0  0  0  0  0  0
    5.5663    2.2110    0.3154 H   0  0  0  0  0  0  0  0  0  0  0  0
    5.1117    2.1665   -2.0788 H   0  0  0  0  0  0  0  0  0  0  0  0
    4.5752    0.4572   -1.9914 H   0  0  0  0  0  0  0  0  0  0  0  0
    1.7232    1.2337    0.1295 H   0  0  0  0  0  0  0  0  0  0  0  0
    2.6226   -0.0793   -0.6722 H   0  0  0  0  0  0  0  0  0  0  0  0
    3.6624    1.7049    1.5911 H   0  0  0  0  0  0  0  0  0  0  0  0
    3.1949   -0.0174    1.7345 H   0  0  0  0  0  0  0  0  0  0  0  0
    9.8764   -1.2169   -3.8275 H   0  0  0  0  0  0  0  0  0  0  0  0
    8.8971   -2.3958   -4.7507 H   0  0  0  0  0  0  0  0  0  0  0  0
    8.6056    0.6488   -4.7533 H   0  0  0  0  0  0  0  0  0  0  0  0
    9.1324   -0.3481   -6.1146 H   0  0  0  0  0  0  0  0  0  0  0  0
    6.9072   -1.4005   -6.2582 H   0  0  0  0  0  0  0  0  0  0  0  0
    6.6956    0.3603   -6.2677 H   0  0  0  0  0  0  0  0  0  0  0  0
   -0.3077    4.3421   -2.1722 H   0  0  0  0  0  0  0  0  0  0  0  0
    1.2010    3.2529   -0.5771 H   0  0  0  0  0  0  0  0  0  0  0  0
    3.6309    1.7371   -3.7616 H   0  0  0  0  0  0  0  0  0  0  0  0
  1  2  1  0  0  0  0
  2  3  1  0  0  0  0
  3  4  1  0  0  0  0
  2  5  1  0  0  0  0
  5  6  4  0  0  0  0
  6  7  4  0  0  0  0
  7  8  4  0  0  0  0
  8  9  4  0  0  0  0
  5 10  4  0  0  0  0
  9 10  4  0  0  0  0
 10 11  1  0  0  0  0
 11 12  1  0  0  0  0
 12 13  1  0  0  0  0
 13 14  1  0  0  0  0
 11 15  2  0  0  0  0
 15 16  1  0  0  0  0
 16 17  1  0  0  0  0
 17 18  1  0  0  0  0
 17 19  1  0  0  0  0
 17 20  1  0  0  0  0
 20 21  1  0  0  0  0
 21 22  1  0  0  0  0
 22 23  1  0  0  0  0
 23 24  1  0  0  0  0
 24 25  1  0  0  0  0
 25 26  4  0  0  0  0
 26 27  1  0  0  0  0
 27 28  1  0  0  0  0
 28 29  4  0  0  0  0
 29 30  1  0  0  0  0
 30 31  1  0  0  0  0
 31 32  1  0  0  0  0
 31 33  1  0  0  0  0
 30 34  1  0  0  0  0
 34 35  4  0  0  0  0
 35 36  1  0  0  0  0
 36 37  1  0  0  0  0
 37 38  1  0  0  0  0
 38 39  1  0  0  0  0
 39 40  4  0  0  0  0
 40 41  1  0  0  0  0
 41 42  3  0  0  0  0
 42 43  1  0  0  0  0
 43 44  1  0  0  0  0
 44 45  1  0  0  0  0
 44 46  1  0  0  0  0
 43 47  1  0  0  0  0
 43 48  1  0  0  0  0
 40 49  2  0  0  0  0
 39 50  1  0  0  0  0
 36 51  1  0  0  0  0
 50 51  1  0  0  0  0
 35 52  2  0  0  0  0
 34 53  1  0  0  0  0
 29 54  2  0  0  0  0
 27 55  1  0  0  0  0
 55 56  1  0  0  0  0
 56 57  1  0  0  0  0
 57 58  1  0  0  0  0
 58 59  1  0  0  0  0
 59 60  1  0  0  0  0
 56 61  1  0  0  0  0
 60 61  1  0  0  0  0
 26 62  2  0  0  0  0
 25 63  1  0  0  0  0
 63 64  1  0  0  0  0
 23 65  1  0  0  0  0
 64 65  1  0  0  0  0
 22 66  2  0  0  0  0
 15 67  4  0  0  0  0
 12 68  1  0  0  0  0
 67 68  4  0  0  0  0
 68 69  4  0  0  0  0
 69 70  2  0  0  0  0
 58 71  1  0  0  0  0
 70 71  4  0  0  0  0
 67 72  4  0  0  0  0
 71 72  4  0  0  0  0
 36 73  1  0  0  0  0
  1 74  1  0  0  0  0
  1 75  1  0  0  0  0
  1 76  1  0  0  0  0
  2 77  1  0  0  0  0
  4 78  1  0  0  0  0
  4 79  1  0  0  0  0
  4 80  1  0  0  0  0
  7 81  1  0  0  0  0
  8 82  1  0  0  0  0
  9 83  1  0  0  0  0
 13 84  1  0  0  0  0
 13 85  1  0  0  0  0
 14 86  1  0  0  0  0
 14 87  1  0  0  0  0
 14 88  1  0  0  0  0
 16 89  1  0  0  0  0
 16 90  1  0  0  0  0
 18 91  1  0  0  0  0
 18 92  1  0  0  0  0
 18 93  1  0  0  0  0
 19 94  1  0  0  0  0
 19 95  1  0  0  0  0
 19 96  1  0  0  0  0
 20 97  1  0  0  0  0
 20 98  1  0  0  0  0
 23 99  1  0  0  0  0
 24100  1  0  0  0  0
 27101  1  0  0  0  0
 28102  1  0  0  0  0
 30103  1  0  0  0  0
 31104  1  0  0  0  0
 32105  1  0  0  0  0
 32106  1  0  0  0  0
 32107  1  0  0  0  0
 33108  1  0  0  0  0
 33109  1  0  0  0  0
 33110  1  0  0  0  0
 37111  1  0  0  0  0
 37112  1  0  0  0  0
 38113  1  0  0  0  0
 38114  1  0  0  0  0
 45115  1  0  0  0  0
 45116  1  0  0  0  0
 45117  1  0  0  0  0
 46118  1  0  0  0  0
 46119  1  0  0  0  0
 46120  1  0  0  0  0
 47121  1  0  0  0  0
 47122  1  0  0  0  0
 47123  1  0  0  0  0
 48124  1  0  0  0  0
 48125  1  0  0  0  0
 48126  1  0  0  0  0
 50127  1  0  0  0  0
 50128  1  0  0  0  0
 51129  1  0  0  0  0
 51130  1  0  0  0  0
 53131  1  0  0  0  0
 53132  1  0  0  0  0
 53133  1  0  0  0  0
 55134  1  0  0  0  0
 55135  1  0  0  0  0
 56136  1  0  0  0  0
 57137  1  0  0  0  0
 57138  1  0  0  0  0
 59139  1  0  0  0  0
 59140  1  0  0  0  0
 60141  1  0  0  0  0
 60142  1  0  0  0  0
 63143  1  0  0  0  0
 63144  1  0  0  0  0
 64145  1  0  0  0  0
 64146  1  0  0  0  0
 65147  1  0  0  0  0
 65148  1  0  0  0  0
 69149  1  0  0  0  0
 70150  1  0  0  0  0
 72151  1  0  0  0  0
M  END
$$$$
