 xtb: 6.7.1 (edcfbbe)
          08232518413D

151157  0     0  0            999 V2000
    4.6647   -4.0923    1.4851 C   0  0  0  0  0  0  0  0  0  0  0  0
    3.9709   -4.4718    2.7992 C   0  0  0  0  0  0  0  0  0  0  0  0
    2.5718   -4.2417    2.7476 O   0  0  0  0  0  0  0  0  0  0  0  0
    1.8274   -5.3448    2.3060 C   0  0  0  0  0  0  0  0  0  0  0  0
    4.6008   -3.7204    3.9517 C   0  0  0  0  0  0  0  0  0  0  0  0
    5.4183   -4.4773    4.6737 N   0  0  0  0  0  0  0  0  0  0  0  0
    6.1122   -3.9445    5.6606 C   0  0  0  0  0  0  0  0  0  0  0  0
    6.0445   -2.5994    5.9840 C   0  0  0  0  0  0  0  0  0  0  0  0
    5.1857   -1.8074    5.2462 C   0  0  0  0  0  0  0  0  0  0  0  0
    4.4228   -2.3572    4.2142 C   0  0  0  0  0  0  0  0  0  0  0  0
    3.5235   -1.4567    3.4768 C   0  0  0  0  0  0  0  0  0  0  0  0
    4.0604   -0.5307    2.6094 N   0  0  0  0  0  0  0  0  0  0  0  0
    5.4397   -0.4205    2.2137 C   0  0  0  0  0  0  0  0  0  0  0  0
    6.1213    0.7954    2.8408 C   0  0  0  0  0  0  0  0  0  0  0  0
    2.1645   -1.2679    3.5934 C   0  0  0  0  0  0  0  0  0  0  0  0
    1.1588   -2.0496    4.3791 C   0  0  0  0  0  0  0  0  0  0  0  0
    0.8899   -1.5860    5.8289 C   0  0  0  0  0  0  0  0  0  0  0  0
    2.1718   -1.6748    6.6583 C   0  0  0  0  0  0  0  0  0  0  0  0
   -0.1675   -2.5086    6.4408 C   0  0  0  0  0  0  0  0  0  0  0  0
    0.4157   -0.1179    5.8826 C   0  0  0  0  0  0  0  0  0  0  0  0
   -1.0000    0.0722    5.7468 O   0  0  0  0  0  0  0  0  0  0  0  0
   -1.6863    0.2607    6.8711 C   0  0  0  0  0  0  0  0  0  0  0  0
   -3.1338    0.6515    6.5913 C   0  0  0  0  0  0  0  0  0  0  0  0
   -3.8328   -0.2979    5.7359 N   0  0  0  0  0  0  0  0  0  0  0  0
   -5.0648    0.2443    5.3496 N   0  0  0  0  0  0  0  0  0  0  0  0
   -5.2810    1.0575    4.2906 C   0  0  0  0  0  0  0  0  0  0  0  0
   -4.1015    1.2278    3.3141 C   0  0  0  0  0  0  0  0  0  0  0  0
   -4.3335    0.3983    2.1488 N   0  0  0  0  0  0  0  0  0  0  0  0
   -3.9398   -0.8812    2.1128 C   0  0  0  0  0  0  0  0  0  0  0  0
   -4.2777   -1.6242    0.8175 C   0  0  0  0  0  0  0  0  0  0  0  0
   -5.5454   -2.4782    0.9772 C   0  0  0  0  0  0  0  0  0  0  0  0
   -5.9205   -3.1064   -0.3644 C   0  0  0  0  0  0  0  0  0  0  0  0
   -6.7000   -1.6141    1.4836 C   0  0  0  0  0  0  0  0  0  0  0  0
   -3.0945   -2.3820    0.4039 N   0  0  0  0  0  0  0  0  0  0  0  0
   -2.2297   -1.7035   -0.3705 C   0  0  0  0  0  0  0  0  0  0  0  0
   -0.8908   -2.3371   -0.7879 C   0  0  0  0  0  0  0  0  0  0  0  0
    0.1253   -2.2774    0.3567 C   0  0  0  0  0  0  0  0  0  0  0  0
    1.4795   -2.8183   -0.1054 C   0  0  0  0  0  0  0  0  0  0  0  0
    1.9390   -2.0580   -1.2414 N   0  0  0  0  0  0  0  0  0  0  0  0
    3.0382   -1.2764   -1.1517 C   0  0  0  0  0  0  0  0  0  0  0  0
    3.2028   -0.3183   -2.2159 C   0  0  0  0  0  0  0  0  0  0  0  0
    3.4449    0.6229   -2.9281 C   0  0  0  0  0  0  0  0  0  0  0  0
    3.5889    1.7007   -3.9054 C   0  0  0  0  0  0  0  0  0  0  0  0
    2.7445    1.4727   -5.0901 N   0  0  0  0  0  0  0  0  0  0  0  0
    3.0913    0.2679   -5.8199 C   0  0  0  0  0  0  0  0  0  0  0  0
    1.3216    1.5090   -4.8084 C   0  0  0  0  0  0  0  0  0  0  0  0
    3.1911    3.0172   -3.2174 C   0  0  0  0  0  0  0  0  0  0  0  0
    5.0637    1.8024   -4.3260 C   0  0  0  0  0  0  0  0  0  0  0  0
    3.8389   -1.3482   -0.2341 O   0  0  0  0  0  0  0  0  0  0  0  0
    1.0492   -2.1054   -2.3729 C   0  0  0  0  0  0  0  0  0  0  0  0
   -0.3372   -1.5831   -2.0014 C   0  0  0  0  0  0  0  0  0  0  0  0
   -2.4713   -0.5665   -0.7551 O   0  0  0  0  0  0  0  0  0  0  0  0
   -2.8537   -3.6433    1.0703 C   0  0  0  0  0  0  0  0  0  0  0  0
   -3.3435   -1.4110    3.0396 O   0  0  0  0  0  0  0  0  0  0  0  0
   -3.9464    2.6955    2.9213 C   0  0  0  0  0  0  0  0  0  0  0  0
   -2.7750    2.9626    1.9628 C   0  0  0  0  0  0  0  0  0  0  0  0
   -1.6163    1.9862    2.1735 C   0  0  0  0  0  0  0  0  0  0  0  0
   -0.5238    2.2759    1.2670 N   0  0  0  0  0  0  0  0  0  0  0  0
   -1.0102    2.2323   -0.1070 C   0  0  0  0  0  0  0  0  0  0  0  0
   -2.1934    3.1878   -0.2635 C   0  0  0  0  0  0  0  0  0  0  0  0
   -3.2392    2.8774    0.6292 O   0  0  0  0  0  0  0  0  0  0  0  0
   -6.3653    1.5653    4.0700 O   0  0  0  0  0  0  0  0  0  0  0  0
   -5.9735    0.2628    6.4814 C   0  0  0  0  0  0  0  0  0  0  0  0
   -5.3829    1.1742    7.5620 C   0  0  0  0  0  0  0  0  0  0  0  0
   -3.9501    0.7489    7.8849 C   0  0  0  0  0  0  0  0  0  0  0  0
   -1.2170    0.2246    7.9779 O   0  0  0  0  0  0  0  0  0  0  0  0
    1.8477   -0.1807    2.7262 C   0  0  0  0  0  0  0  0  0  0  0  0
    3.0493    0.2436    2.1189 C   0  0  0  0  0  0  0  0  0  0  0  0
    3.0441    1.2786    1.1886 C   0  0  0  0  0  0  0  0  0  0  0  0
    1.8482    1.8991    0.9079 C   0  0  0  0  0  0  0  0  0  0  0  0
    0.6433    1.5156    1.5273 C   0  0  0  0  0  0  0  0  0  0  0  0
    0.6455    0.4570    2.4196 C   0  0  0  0  0  0  0  0  0  0  0  0
   -1.0842   -3.6669   -1.1726 F   0  0  0  0  0  0  0  0  0  0  0  0
    4.4613   -3.0566    1.2266 H   0  0  0  0  0  0  0  0  0  0  0  0
    5.7376   -4.2333    1.5877 H   0  0  0  0  0  0  0  0  0  0  0  0
    4.3086   -4.7278    0.6771 H   0  0  0  0  0  0  0  0  0  0  0  0
    4.1570   -5.5372    3.0027 H   0  0  0  0  0  0  0  0  0  0  0  0
    0.7821   -5.0421    2.3362 H   0  0  0  0  0  0  0  0  0  0  0  0
    2.0893   -5.6373    1.2830 H   0  0  0  0  0  0  0  0  0  0  0  0
    1.9706   -6.2113    2.9642 H   0  0  0  0  0  0  0  0  0  0  0  0
    6.7522   -4.6280    6.2030 H   0  0  0  0  0  0  0  0  0  0  0  0
    6.6383   -2.1873    6.7848 H   0  0  0  0  0  0  0  0  0  0  0  0
    5.0947   -0.7526    5.4649 H   0  0  0  0  0  0  0  0  0  0  0  0
    5.9610   -1.3333    2.5120 H   0  0  0  0  0  0  0  0  0  0  0  0
    5.4702   -0.3473    1.1231 H   0  0  0  0  0  0  0  0  0  0  0  0
    6.1666    0.6990    3.9230 H   0  0  0  0  0  0  0  0  0  0  0  0
    7.1356    0.8862    2.4608 H   0  0  0  0  0  0  0  0  0  0  0  0
    5.5745    1.7035    2.5999 H   0  0  0  0  0  0  0  0  0  0  0  0
    0.2109   -2.0146    3.8370 H   0  0  0  0  0  0  0  0  0  0  0  0
    1.4862   -3.0886    4.4172 H   0  0  0  0  0  0  0  0  0  0  0  0
    1.9564   -1.4988    7.7101 H   0  0  0  0  0  0  0  0  0  0  0  0
    2.6203   -2.6598    6.5569 H   0  0  0  0  0  0  0  0  0  0  0  0
    2.8896   -0.9319    6.3229 H   0  0  0  0  0  0  0  0  0  0  0  0
   -0.4092   -2.1939    7.4536 H   0  0  0  0  0  0  0  0  0  0  0  0
   -1.0801   -2.5003    5.8480 H   0  0  0  0  0  0  0  0  0  0  0  0
    0.2097   -3.5278    6.4775 H   0  0  0  0  0  0  0  0  0  0  0  0
    0.7072    0.3173    6.8438 H   0  0  0  0  0  0  0  0  0  0  0  0
    0.8697    0.4528    5.0702 H   0  0  0  0  0  0  0  0  0  0  0  0
   -3.0783    1.6547    6.1206 H   0  0  0  0  0  0  0  0  0  0  0  0
   -3.3074   -0.6561    4.9406 H   0  0  0  0  0  0  0  0  0  0  0  0
   -3.1815    0.8785    3.7884 H   0  0  0  0  0  0  0  0  0  0  0  0
   -4.7546    0.8459    1.3496 H   0  0  0  0  0  0  0  0  0  0  0  0
   -4.4529   -0.8866    0.0271 H   0  0  0  0  0  0  0  0  0  0  0  0
   -5.3605   -3.2614    1.7172 H   0  0  0  0  0  0  0  0  0  0  0  0
   -6.7647   -3.7805   -0.2406 H   0  0  0  0  0  0  0  0  0  0  0  0
   -6.2028   -2.3304   -1.0727 H   0  0  0  0  0  0  0  0  0  0  0  0
   -5.0925   -3.6658   -0.7917 H   0  0  0  0  0  0  0  0  0  0  0  0
   -6.4968   -1.2165    2.4747 H   0  0  0  0  0  0  0  0  0  0  0  0
   -6.8857   -0.7817    0.8083 H   0  0  0  0  0  0  0  0  0  0  0  0
   -7.6062   -2.2125    1.5401 H   0  0  0  0  0  0  0  0  0  0  0  0
    0.2355   -1.2342    0.6604 H   0  0  0  0  0  0  0  0  0  0  0  0
   -0.2112   -2.8460    1.2220 H   0  0  0  0  0  0  0  0  0  0  0  0
    2.2058   -2.7268    0.7023 H   0  0  0  0  0  0  0  0  0  0  0  0
    1.3793   -3.8712   -0.3915 H   0  0  0  0  0  0  0  0  0  0  0  0
    3.0097   -0.6458   -5.2112 H   0  0  0  0  0  0  0  0  0  0  0  0
    2.4189    0.1753   -6.6715 H   0  0  0  0  0  0  0  0  0  0  0  0
    4.1049    0.3429   -6.2050 H   0  0  0  0  0  0  0  0  0  0  0  0
    1.0131    0.7903   -4.0344 H   0  0  0  0  0  0  0  0  0  0  0  0
    1.0274    2.5086   -4.4979 H   0  0  0  0  0  0  0  0  0  0  0  0
    0.7835    1.2764   -5.7258 H   0  0  0  0  0  0  0  0  0  0  0  0
    3.9344    3.2749   -2.4671 H   0  0  0  0  0  0  0  0  0  0  0  0
    3.1437    3.8112   -3.9581 H   0  0  0  0  0  0  0  0  0  0  0  0
    2.2305    2.9305   -2.7172 H   0  0  0  0  0  0  0  0  0  0  0  0
    5.6545    2.1864   -3.4983 H   0  0  0  0  0  0  0  0  0  0  0  0
    5.4694    0.8327   -4.6006 H   0  0  0  0  0  0  0  0  0  0  0  0
    5.1499    2.4820   -5.1697 H   0  0  0  0  0  0  0  0  0  0  0  0
    1.4676   -1.5143   -3.1901 H   0  0  0  0  0  0  0  0  0  0  0  0
    0.9642   -3.1491   -2.7023 H   0  0  0  0  0  0  0  0  0  0  0  0
   -1.0211   -1.7044   -2.8426 H   0  0  0  0  0  0  0  0  0  0  0  0
   -0.2867   -0.5240   -1.7495 H   0  0  0  0  0  0  0  0  0  0  0  0
   -2.8666   -3.4817    2.1498 H   0  0  0  0  0  0  0  0  0  0  0  0
   -3.6289   -4.3624    0.8038 H   0  0  0  0  0  0  0  0  0  0  0  0
   -1.9000   -4.0665    0.7828 H   0  0  0  0  0  0  0  0  0  0  0  0
   -4.8679    3.0376    2.4472 H   0  0  0  0  0  0  0  0  0  0  0  0
   -3.8018    3.2771    3.8333 H   0  0  0  0  0  0  0  0  0  0  0  0
   -2.4012    3.9881    2.1311 H   0  0  0  0  0  0  0  0  0  0  0  0
   -1.2491    2.0771    3.1984 H   0  0  0  0  0  0  0  0  0  0  0  0
   -1.9881    0.9680    1.9903 H   0  0  0  0  0  0  0  0  0  0  0  0
   -0.2098    2.5253   -0.7871 H   0  0  0  0  0  0  0  0  0  0  0  0
   -1.3577    1.2214   -0.3686 H   0  0  0  0  0  0  0  0  0  0  0  0
   -1.8595    4.2230   -0.0900 H   0  0  0  0  0  0  0  0  0  0  0  0
   -2.6145    3.1017   -1.2661 H   0  0  0  0  0  0  0  0  0  0  0  0
   -6.9400    0.6292    6.1361 H   0  0  0  0  0  0  0  0  0  0  0  0
   -6.0665   -0.7601    6.8510 H   0  0  0  0  0  0  0  0  0  0  0  0
   -5.3876    2.2029    7.1934 H   0  0  0  0  0  0  0  0  0  0  0  0
   -5.9998    1.1312    8.4592 H   0  0  0  0  0  0  0  0  0  0  0  0
   -3.9502   -0.2341    8.3568 H   0  0  0  0  0  0  0  0  0  0  0  0
   -3.4797    1.4553    8.5682 H   0  0  0  0  0  0  0  0  0  0  0  0
    3.9486    1.5895    0.6892 H   0  0  0  0  0  0  0  0  0  0  0  0
    1.8299    2.7209    0.2080 H   0  0  0  0  0  0  0  0  0  0  0  0
   -0.2554    0.1028    2.8929 H   0  0  0  0  0  0  0  0  0  0  0  0
  1  2  1  0  0  0  0
  2  3  1  0  0  0  0
  3  4  1  0  0  0  0
  2  5  1  0  0  0  0
  5  6  4  0  0  0  0
  6  7  4  0  0  0  0
  7  8  4  0  0  0  0
  8  9  4  0  0  0  0
  5 10  4  0  0  0  0
  9 10  4  0  0  0  0
 10 11  1  0  0  0  0
 11 12  1  0  0  0  0
 12 13  1  0  0  0  0
 13 14  1  0  0  0  0
 11 15  2  0  0  0  0
 15 16  1  0  0  0  0
 16 17  1  0  0  0  0
 17 18  1  0  0  0  0
 17 19  1  0  0  0  0
 17 20  1  0  0  0  0
 20 21  1  0  0  0  0
 21 22  1  0  0  0  0
 22 23  1  0  0  0  0
 23 24  1  0  0  0  0
 24 25  1  0  0  0  0
 25 26  4  0  0  0  0
 26 27  1  0  0  0  0
 27 28  1  0  0  0  0
 28 29  4  0  0  0  0
 29 30  1  0  0  0  0
 30 31  1  0  0  0  0
 31 32  1  0  0  0  0
 31 33  1  0  0  0  0
 30 34  1  0  0  0  0
 34 35  4  0  0  0  0
 35 36  1  0  0  0  0
 36 37  1  0  0  0  0
 37 38  1  0  0  0  0
 38 39  1  0  0  0  0
 39 40  4  0  0  0  0
 40 41  1  0  0  0  0
 41 42  3  0  0  0  0
 42 43  1  0  0  0  0
 43 44  1  0  0  0  0
 44 45  1  0  0  0  0
 44 46  1  0  0  0  0
 43 47  1  0  0  0  0
 43 48  1  0  0  0  0
 40 49  2  0  0  0  0
 39 50  1  0  0  0  0
 36 51  1  0  0  0  0
 50 51  1  0  0  0  0
 35 52  2  0  0  0  0
 34 53  1  0  0  0  0
 29 54  2  0  0  0  0
 27 55  1  0  0  0  0
 55 56  1  0  0  0  0
 56 57  1  0  0  0  0
 57 58  1  0  0  0  0
 58 59  1  0  0  0  0
 59 60  1  0  0  0  0
 56 61  1  0  0  0  0
 60 61  1  0  0  0  0
 26 62  2  0  0  0  0
 25 63  1  0  0  0  0
 63 64  1  0  0  0  0
 23 65  1  0  0  0  0
 64 65  1  0  0  0  0
 22 66  2  0  0  0  0
 15 67  4  0  0  0  0
 12 68  1  0  0  0  0
 67 68  4  0  0  0  0
 68 69  4  0  0  0  0
 69 70  2  0  0  0  0
 58 71  1  0  0  0  0
 70 71  4  0  0  0  0
 67 72  4  0  0  0  0
 71 72  4  0  0  0  0
 36 73  1  0  0  0  0
  1 74  1  0  0  0  0
  1 75  1  0  0  0  0
  1 76  1  0  0  0  0
  2 77  1  0  0  0  0
  4 78  1  0  0  0  0
  4 79  1  0  0  0  0
  4 80  1  0  0  0  0
  7 81  1  0  0  0  0
  8 82  1  0  0  0  0
  9 83  1  0  0  0  0
 13 84  1  0  0  0  0
 13 85  1  0  0  0  0
 14 86  1  0  0  0  0
 14 87  1  0  0  0  0
 14 88  1  0  0  0  0
 16 89  1  0  0  0  0
 16 90  1  0  0  0  0
 18 91  1  0  0  0  0
 18 92  1  0  0  0  0
 18 93  1  0  0  0  0
 19 94  1  0  0  0  0
 19 95  1  0  0  0  0
 19 96  1  0  0  0  0
 20 97  1  0  0  0  0
 20 98  1  0  0  0  0
 23 99  1  0  0  0  0
 24100  1  0  0  0  0
 27101  1  0  0  0  0
 28102  1  0  0  0  0
 30103  1  0  0  0  0
 31104  1  0  0  0  0
 32105  1  0  0  0  0
 32106  1  0  0  0  0
 32107  1  0  0  0  0
 33108  1  0  0  0  0
 33109  1  0  0  0  0
 33110  1  0  0  0  0
 37111  1  0  0  0  0
 37112  1  0  0  0  0
 38113  1  0  0  0  0
 38114  1  0  0  0  0
 45115  1  0  0  0  0
 45116  1  0  0  0  0
 45117  1  0  0  0  0
 46118  1  0  0  0  0
 46119  1  0  0  0  0
 46120  1  0  0  0  0
 47121  1  0  0  0  0
 47122  1  0  0  0  0
 47123  1  0  0  0  0
 48124  1  0  0  0  0
 48125  1  0  0  0  0
 48126  1  0  0  0  0
 50127  1  0  0  0  0
 50128  1  0  0  0  0
 51129  1  0  0  0  0
 51130  1  0  0  0  0
 53131  1  0  0  0  0
 53132  1  0  0  0  0
 53133  1  0  0  0  0
 55134  1  0  0  0  0
 55135  1  0  0  0  0
 56136  1  0  0  0  0
 57137  1  0  0  0  0
 57138  1  0  0  0  0
 59139  1  0  0  0  0
 59140  1  0  0  0  0
 60141  1  0  0  0  0
 60142  1  0  0  0  0
 63143  1  0  0  0  0
 63144  1  0  0  0  0
 64145  1  0  0  0  0
 64146  1  0  0  0  0
 65147  1  0  0  0  0
 65148  1  0  0  0  0
 69149  1  0  0  0  0
 70150  1  0  0  0  0
 72151  1  0  0  0  0
M  END
$$$$
