 energy: -221.267548222105 gnorm: 0.000656880569 xtb: 6.7.1 (edcfbbe)
          08182522573D

151157  0     0  0            999 V2000
   -0.5758   15.1712  -11.3956 C   0  0  0  0  0  0  0  0  0  0  0  0
    0.1702   14.0336  -12.1059 C   0  0  0  0  0  0  0  0  0  0  0  0
   -0.6932   13.0259  -12.5983 O   0  0  0  0  0  0  0  0  0  0  0  0
   -1.5321   13.4322  -13.6475 C   0  0  0  0  0  0  0  0  0  0  0  0
    1.1588   13.3964  -11.1552 C   0  0  0  0  0  0  0  0  0  0  0  0
    2.4174   13.7660  -11.3405 N   0  0  0  0  0  0  0  0  0  0  0  0
    3.3579   13.2991  -10.5402 C   0  0  0  0  0  0  0  0  0  0  0  0
    3.0969   12.4249   -9.4978 C   0  0  0  0  0  0  0  0  0  0  0  0
    1.7850   12.0330   -9.2981 C   0  0  0  0  0  0  0  0  0  0  0  0
    0.7810   12.5161  -10.1336 C   0  0  0  0  0  0  0  0  0  0  0  0
   -0.6127   12.1242   -9.8828 C   0  0  0  0  0  0  0  0  0  0  0  0
   -1.2214   11.0969  -10.5575 N   0  0  0  0  0  0  0  0  0  0  0  0
   -0.5887   10.2334  -11.5166 C   0  0  0  0  0  0  0  0  0  0  0  0
    0.0214    9.0026  -10.8461 C   0  0  0  0  0  0  0  0  0  0  0  0
   -1.4747   12.6716   -8.9617 C   0  0  0  0  0  0  0  0  0  0  0  0
   -1.1531   13.7690   -7.9996 C   0  0  0  0  0  0  0  0  0  0  0  0
   -0.9218   13.3656   -6.5044 C   0  0  0  0  0  0  0  0  0  0  0  0
   -2.1225   13.7952   -5.6534 C   0  0  0  0  0  0  0  0  0  0  0  0
    0.3177   14.1153   -5.9998 C   0  0  0  0  0  0  0  0  0  0  0  0
   -0.6849   11.8410   -6.3460 C   0  0  0  0  0  0  0  0  0  0  0  0
   -1.3953   11.2447   -5.2556 O   0  0  0  0  0  0  0  0  0  0  0  0
   -0.8538   11.2795   -4.0435 C   0  0  0  0  0  0  0  0  0  0  0  0
   -1.7853   10.6077   -3.0344 C   0  0  0  0  0  0  0  0  0  0  0  0
   -2.0768    9.2500   -3.4906 N   0  0  0  0  0  0  0  0  0  0  0  0
   -3.0197    8.6221   -2.6597 N   0  0  0  0  0  0  0  0  0  0  0  0
   -4.2851    8.2879   -2.9680 C   0  0  0  0  0  0  0  0  0  0  0  0
   -4.7745    8.6421   -4.3793 C   0  0  0  0  0  0  0  0  0  0  0  0
   -5.8223    7.7217   -4.7526 N   0  0  0  0  0  0  0  0  0  0  0  0
   -5.6656    6.8637   -5.7775 C   0  0  0  0  0  0  0  0  0  0  0  0
   -6.8552    5.9304   -6.0079 C   0  0  0  0  0  0  0  0  0  0  0  0
   -6.4049    4.4613   -5.9047 C   0  0  0  0  0  0  0  0  0  0  0  0
   -7.5549    3.5211   -6.2521 C   0  0  0  0  0  0  0  0  0  0  0  0
   -5.9074    4.2001   -4.4843 C   0  0  0  0  0  0  0  0  0  0  0  0
   -7.4836    6.2474   -7.2874 N   0  0  0  0  0  0  0  0  0  0  0  0
   -8.7634    6.6642   -7.2531 C   0  0  0  0  0  0  0  0  0  0  0  0
   -9.5234    6.8847   -8.5753 C   0  0  0  0  0  0  0  0  0  0  0  0
  -10.6983    7.8414   -8.3524 C   0  0  0  0  0  0  0  0  0  0  0  0
  -11.5570    7.9412   -9.6157 C   0  0  0  0  0  0  0  0  0  0  0  0
  -11.9833    6.6324  -10.0414 N   0  0  0  0  0  0  0  0  0  0  0  0
  -13.2662    6.1974  -10.0802 C   0  0  0  0  0  0  0  0  0  0  0  0
  -14.2583    7.1895   -9.7441 C   0  0  0  0  0  0  0  0  0  0  0  0
  -15.1966    7.8968   -9.4849 C   0  0  0  0  0  0  0  0  0  0  0  0
  -16.3126    8.7939   -9.1985 C   0  0  0  0  0  0  0  0  0  0  0  0
  -15.8364    9.8184   -8.2611 N   0  0  0  0  0  0  0  0  0  0  0  0
  -15.2924    9.2831   -7.0296 C   0  0  0  0  0  0  0  0  0  0  0  0
  -16.7721   10.8842   -7.9779 C   0  0  0  0  0  0  0  0  0  0  0  0
  -17.4869    7.9400   -8.6793 C   0  0  0  0  0  0  0  0  0  0  0  0
  -16.6973    9.4387  -10.5409 C   0  0  0  0  0  0  0  0  0  0  0  0
  -13.5776    5.0624  -10.3947 O   0  0  0  0  0  0  0  0  0  0  0  0
  -10.9042    5.7176  -10.3195 C   0  0  0  0  0  0  0  0  0  0  0  0
  -10.0385    5.5278   -9.0732 C   0  0  0  0  0  0  0  0  0  0  0  0
   -9.3832    6.7917   -6.2073 O   0  0  0  0  0  0  0  0  0  0  0  0
   -6.6606    6.1760   -8.4767 C   0  0  0  0  0  0  0  0  0  0  0  0
   -4.6782    6.8665   -6.4898 O   0  0  0  0  0  0  0  0  0  0  0  0
   -5.2811   10.0913   -4.4040 C   0  0  0  0  0  0  0  0  0  0  0  0
   -5.1140   10.7451   -5.7817 C   0  0  0  0  0  0  0  0  0  0  0  0
   -6.0273   10.1311   -6.8601 C   0  0  0  0  0  0  0  0  0  0  0  0
   -6.1324   11.0172   -8.0039 N   0  0  0  0  0  0  0  0  0  0  0  0
   -6.7602   12.2758   -7.6279 C   0  0  0  0  0  0  0  0  0  0  0  0
   -6.5588   12.6041   -6.1348 C   0  0  0  0  0  0  0  0  0  0  0  0
   -5.3053   12.1524   -5.6732 O   0  0  0  0  0  0  0  0  0  0  0  0
   -5.0193    7.7117   -2.1821 O   0  0  0  0  0  0  0  0  0  0  0  0
   -2.4806    8.4112   -1.3298 C   0  0  0  0  0  0  0  0  0  0  0  0
   -2.1093    9.7607   -0.7139 C   0  0  0  0  0  0  0  0  0  0  0  0
   -1.1556   10.5058   -1.6460 C   0  0  0  0  0  0  0  0  0  0  0  0
    0.2066   11.7705   -3.7669 O   0  0  0  0  0  0  0  0  0  0  0  0
   -2.7004   11.9529   -9.0890 C   0  0  0  0  0  0  0  0  0  0  0  0
   -2.4925   10.9585  -10.0755 C   0  0  0  0  0  0  0  0  0  0  0  0
   -3.4864   10.0338  -10.3793 C   0  0  0  0  0  0  0  0  0  0  0  0
   -4.6698   10.1057   -9.6804 C   0  0  0  0  0  0  0  0  0  0  0  0
   -4.8933   11.0937   -8.7090 C   0  0  0  0  0  0  0  0  0  0  0  0
   -3.9236   12.0348   -8.4288 C   0  0  0  0  0  0  0  0  0  0  0  0
   -8.7151    7.4474   -9.5576 F   0  0  0  0  0  0  0  0  0  0  0  0
   -1.2744   14.7551  -10.6749 H   0  0  0  0  0  0  0  0  0  0  0  0
    0.1413   15.8048  -10.8808 H   0  0  0  0  0  0  0  0  0  0  0  0
   -1.1213   15.7792  -12.1129 H   0  0  0  0  0  0  0  0  0  0  0  0
    0.7540   14.4584  -12.9396 H   0  0  0  0  0  0  0  0  0  0  0  0
   -2.3155   14.1166  -13.3058 H   0  0  0  0  0  0  0  0  0  0  0  0
   -0.9595   13.9143  -14.4494 H   0  0  0  0  0  0  0  0  0  0  0  0
   -1.9978   12.5257  -14.0310 H   0  0  0  0  0  0  0  0  0  0  0  0
    4.3611   13.6459  -10.7500 H   0  0  0  0  0  0  0  0  0  0  0  0
    3.8909   12.0637   -8.8631 H   0  0  0  0  0  0  0  0  0  0  0  0
    1.5257   11.3577   -8.4949 H   0  0  0  0  0  0  0  0  0  0  0  0
   -1.3394    9.9271  -12.2492 H   0  0  0  0  0  0  0  0  0  0  0  0
    0.1818   10.8057  -12.0369 H   0  0  0  0  0  0  0  0  0  0  0  0
    0.8066    9.2983  -10.1539 H   0  0  0  0  0  0  0  0  0  0  0  0
   -0.7402    8.4563  -10.2940 H   0  0  0  0  0  0  0  0  0  0  0  0
    0.4512    8.3437  -11.5958 H   0  0  0  0  0  0  0  0  0  0  0  0
   -0.2477   14.2628   -8.3590 H   0  0  0  0  0  0  0  0  0  0  0  0
   -1.9593   14.5056   -8.0237 H   0  0  0  0  0  0  0  0  0  0  0  0
   -1.8926   13.6940   -4.5938 H   0  0  0  0  0  0  0  0  0  0  0  0
   -2.3546   14.8413   -5.8403 H   0  0  0  0  0  0  0  0  0  0  0  0
   -3.0020   13.1944   -5.8674 H   0  0  0  0  0  0  0  0  0  0  0  0
    0.5333   13.8462   -4.9686 H   0  0  0  0  0  0  0  0  0  0  0  0
    1.1880   13.8697   -6.6064 H   0  0  0  0  0  0  0  0  0  0  0  0
    0.1545   15.1896   -6.0521 H   0  0  0  0  0  0  0  0  0  0  0  0
   -1.0543   11.3020   -7.2201 H   0  0  0  0  0  0  0  0  0  0  0  0
    0.3823   11.6426   -6.2093 H   0  0  0  0  0  0  0  0  0  0  0  0
   -2.6960   11.2333   -2.9861 H   0  0  0  0  0  0  0  0  0  0  0  0
   -2.3729    9.2462   -4.4602 H   0  0  0  0  0  0  0  0  0  0  0  0
   -3.9843    8.4927   -5.1232 H   0  0  0  0  0  0  0  0  0  0  0  0
   -6.5527    7.5850   -4.0688 H   0  0  0  0  0  0  0  0  0  0  0  0
   -7.6241    6.1138   -5.2511 H   0  0  0  0  0  0  0  0  0  0  0  0
   -5.5752    4.2936   -6.5985 H   0  0  0  0  0  0  0  0  0  0  0  0
   -8.4126    3.7234   -5.6145 H   0  0  0  0  0  0  0  0  0  0  0  0
   -7.8622    3.6424   -7.2877 H   0  0  0  0  0  0  0  0  0  0  0  0
   -7.2501    2.4880   -6.1050 H   0  0  0  0  0  0  0  0  0  0  0  0
   -6.7067    4.3606   -3.7640 H   0  0  0  0  0  0  0  0  0  0  0  0
   -5.5628    3.1732   -4.3909 H   0  0  0  0  0  0  0  0  0  0  0  0
   -5.0810    4.8613   -4.2333 H   0  0  0  0  0  0  0  0  0  0  0  0
  -11.2851    7.4713   -7.5125 H   0  0  0  0  0  0  0  0  0  0  0  0
  -10.3088    8.8270   -8.0943 H   0  0  0  0  0  0  0  0  0  0  0  0
  -12.4325    8.5651   -9.4284 H   0  0  0  0  0  0  0  0  0  0  0  0
  -10.9616    8.3952  -10.4179 H   0  0  0  0  0  0  0  0  0  0  0  0
  -14.6992   10.0624   -6.5494 H   0  0  0  0  0  0  0  0  0  0  0  0
  -16.0669    8.9573   -6.3189 H   0  0  0  0  0  0  0  0  0  0  0  0
  -14.6419    8.4394   -7.2506 H   0  0  0  0  0  0  0  0  0  0  0  0
  -16.2526   11.6352   -7.3824 H   0  0  0  0  0  0  0  0  0  0  0  0
  -17.1013   11.3556   -8.8998 H   0  0  0  0  0  0  0  0  0  0  0  0
  -17.6543   10.5532   -7.4086 H   0  0  0  0  0  0  0  0  0  0  0  0
  -17.2092    7.4173   -7.7672 H   0  0  0  0  0  0  0  0  0  0  0  0
  -18.3524    8.5685   -8.4819 H   0  0  0  0  0  0  0  0  0  0  0  0
  -17.7565    7.1999   -9.4283 H   0  0  0  0  0  0  0  0  0  0  0  0
  -17.6711    9.9174  -10.4794 H   0  0  0  0  0  0  0  0  0  0  0  0
  -15.9486   10.1740  -10.8245 H   0  0  0  0  0  0  0  0  0  0  0  0
  -16.7421    8.6716  -11.3105 H   0  0  0  0  0  0  0  0  0  0  0  0
  -11.3423    4.7672  -10.6311 H   0  0  0  0  0  0  0  0  0  0  0  0
  -10.2905    6.1209  -11.1337 H   0  0  0  0  0  0  0  0  0  0  0  0
   -9.2041    4.8663   -9.3082 H   0  0  0  0  0  0  0  0  0  0  0  0
  -10.6267    5.0765   -8.2730 H   0  0  0  0  0  0  0  0  0  0  0  0
   -5.6917    5.7707   -8.2029 H   0  0  0  0  0  0  0  0  0  0  0  0
   -7.1114    5.5397   -9.2379 H   0  0  0  0  0  0  0  0  0  0  0  0
   -6.4980    7.1681   -8.8990 H   0  0  0  0  0  0  0  0  0  0  0  0
   -6.3311   10.1071   -4.1040 H   0  0  0  0  0  0  0  0  0  0  0  0
   -4.7287   10.6982   -3.6833 H   0  0  0  0  0  0  0  0  0  0  0  0
   -4.0675   10.6302   -6.0988 H   0  0  0  0  0  0  0  0  0  0  0  0
   -5.6095    9.1796   -7.1887 H   0  0  0  0  0  0  0  0  0  0  0  0
   -7.0323    9.9551   -6.4639 H   0  0  0  0  0  0  0  0  0  0  0  0
   -6.3586   13.0708   -8.2576 H   0  0  0  0  0  0  0  0  0  0  0  0
   -7.8360   12.1915   -7.8303 H   0  0  0  0  0  0  0  0  0  0  0  0
   -6.5569   13.6830   -5.9678 H   0  0  0  0  0  0  0  0  0  0  0  0
   -7.3666   12.1629   -5.5346 H   0  0  0  0  0  0  0  0  0  0  0  0
   -3.2429    7.8970   -0.7443 H   0  0  0  0  0  0  0  0  0  0  0  0
   -1.5910    7.7814   -1.4173 H   0  0  0  0  0  0  0  0  0  0  0  0
   -3.0169   10.3501   -0.5649 H   0  0  0  0  0  0  0  0  0  0  0  0
   -1.6425    9.6020    0.2576 H   0  0  0  0  0  0  0  0  0  0  0  0
   -0.2161    9.9595   -1.7351 H   0  0  0  0  0  0  0  0  0  0  0  0
   -0.9352   11.5031   -1.2664 H   0  0  0  0  0  0  0  0  0  0  0  0
   -3.3377    9.2720  -11.1297 H   0  0  0  0  0  0  0  0  0  0  0  0
   -5.4596    9.3961   -9.8723 H   0  0  0  0  0  0  0  0  0  0  0  0
   -4.0897   12.8024   -7.6904 H   0  0  0  0  0  0  0  0  0  0  0  0
  1  2  1  0  0  0  0
  2  3  1  0  0  0  0
  2  5  1  0  0  0  0
  3  4  1  0  0  0  0
  5  6  2  0  0  0  0
  5 10  1  0  0  0  0
  6  7  1  0  0  0  0
  7  8  2  0  0  0  0
  8  9  1  0  0  0  0
  9 10  2  0  0  0  0
 10 11  1  0  0  0  0
 11 12  1  0  0  0  0
 11 15  2  0  0  0  0
 12 13  1  0  0  0  0
 12 68  1  0  0  0  0
 13 14  1  0  0  0  0
 15 16  1  0  0  0  0
 15 67  1  0  0  0  0
 16 17  1  0  0  0  0
 17 18  1  0  0  0  0
 17 19  1  0  0  0  0
 17 20  1  0  0  0  0
 20 21  1  0  0  0  0
 21 22  1  0  0  0  0
 22 23  1  0  0  0  0
 22 66  2  0  0  0  0
 23 24  1  0  0  0  0
 23 65  1  0  0  0  0
 24 25  1  0  0  0  0
 25 26  1  0  0  0  0
 25 63  1  0  0  0  0
 26 27  1  0  0  0  0
 26 62  2  0  0  0  0
 27 28  1  0  0  0  0
 27 55  1  0  0  0  0
 28 29  1  0  0  0  0
 29 30  1  0  0  0  0
 29 54  2  0  0  0  0
 30 31  1  0  0  0  0
 30 34  1  0  0  0  0
 31 32  1  0  0  0  0
 31 33  1  0  0  0  0
 34 35  1  0  0  0  0
 34 53  1  0  0  0  0
 35 36  1  0  0  0  0
 35 52  2  0  0  0  0
 36 37  1  0  0  0  0
 36 51  1  0  0  0  0
 36 73  1  0  0  0  0
 37 38  1  0  0  0  0
 38 39  1  0  0  0  0
 39 40  1  0  0  0  0
 39 50  1  0  0  0  0
 40 41  1  0  0  0  0
 40 49  2  0  0  0  0
 42 43  1  0  0  0  0
 43 44  1  0  0  0  0
 43 47  1  0  0  0  0
 43 48  1  0  0  0  0
 44 45  1  0  0  0  0
 44 46  1  0  0  0  0
 50 51  1  0  0  0  0
 55 56  1  0  0  0  0
 56 57  1  0  0  0  0
 56 61  1  0  0  0  0
 57 58  1  0  0  0  0
 58 59  1  0  0  0  0
 58 71  1  0  0  0  0
 59 60  1  0  0  0  0
 60 61  1  0  0  0  0
 63 64  1  0  0  0  0
 64 65  1  0  0  0  0
 67 68  2  0  0  0  0
 67 72  1  0  0  0  0
 68 69  1  0  0  0  0
 69 70  2  0  0  0  0
 70 71  1  0  0  0  0
 71 72  2  0  0  0  0
 41 42  3  0  0  0  0
  1 74  1  0  0  0  0
  1 75  1  0  0  0  0
  1 76  1  0  0  0  0
  2 77  1  0  0  0  0
  4 78  1  0  0  0  0
  4 79  1  0  0  0  0
  4 80  1  0  0  0  0
  7 81  1  0  0  0  0
  8 82  1  0  0  0  0
  9 83  1  0  0  0  0
 13 84  1  0  0  0  0
 13 85  1  0  0  0  0
 14 86  1  0  0  0  0
 14 87  1  0  0  0  0
 14 88  1  0  0  0  0
 16 89  1  0  0  0  0
 16 90  1  0  0  0  0
 18 91  1  0  0  0  0
 18 92  1  0  0  0  0
 18 93  1  0  0  0  0
 19 94  1  0  0  0  0
 19 95  1  0  0  0  0
 19 96  1  0  0  0  0
 20 97  1  0  0  0  0
 20 98  1  0  0  0  0
 23 99  1  0  0  0  0
 24100  1  0  0  0  0
 27101  1  0  0  0  0
 28102  1  0  0  0  0
 30103  1  0  0  0  0
 31104  1  0  0  0  0
 32105  1  0  0  0  0
 32106  1  0  0  0  0
 32107  1  0  0  0  0
 33108  1  0  0  0  0
 33109  1  0  0  0  0
 33110  1  0  0  0  0
 37111  1  0  0  0  0
 37112  1  0  0  0  0
 38113  1  0  0  0  0
 38114  1  0  0  0  0
 45115  1  0  0  0  0
 45116  1  0  0  0  0
 45117  1  0  0  0  0
 46118  1  0  0  0  0
 46119  1  0  0  0  0
 46120  1  0  0  0  0
 47121  1  0  0  0  0
 47122  1  0  0  0  0
 47123  1  0  0  0  0
 48124  1  0  0  0  0
 48125  1  0  0  0  0
 48126  1  0  0  0  0
 50127  1  0  0  0  0
 50128  1  0  0  0  0
 51129  1  0  0  0  0
 51130  1  0  0  0  0
 53131  1  0  0  0  0
 53132  1  0  0  0  0
 53133  1  0  0  0  0
 55134  1  0  0  0  0
 55135  1  0  0  0  0
 56136  1  0  0  0  0
 57137  1  0  0  0  0
 57138  1  0  0  0  0
 59139  1  0  0  0  0
 59140  1  0  0  0  0
 60141  1  0  0  0  0
 60142  1  0  0  0  0
 63143  1  0  0  0  0
 63144  1  0  0  0  0
 64145  1  0  0  0  0
 64146  1  0  0  0  0
 65147  1  0  0  0  0
 65148  1  0  0  0  0
 69149  1  0  0  0  0
 70150  1  0  0  0  0
 72151  1  0  0  0  0
M  END
$$$$
