mol_ETKDG0_31
     RDKit          3D

151157  0  0  0  0  0  0  0  0999 V2000
    2.5691    7.7435   -8.2197 C   0  0  0  0  0  0  0  0  0  0  0  0
    2.3647    6.2786   -7.8183 C   0  0  2  0  0  0  0  0  0  0  0  0
    3.5884    5.5536   -8.0121 O   0  0  0  0  0  0  0  0  0  0  0  0
    4.4813    5.6694   -6.9129 C   0  0  0  0  0  0  0  0  0  0  0  0
    1.2580    5.6083   -8.6322 C   0  0  0  0  0  0  0  0  0  0  0  0
    1.0018    6.1204   -9.8729 N   0  0  0  0  0  0  0  0  0  0  0  0
    0.0287    5.5479  -10.6114 C   0  0  0  0  0  0  0  0  0  0  0  0
   -0.7357    4.4818  -10.1781 C   0  0  0  0  0  0  0  0  0  0  0  0
   -0.4792    3.9639   -8.9144 C   0  0  0  0  0  0  0  0  0  0  0  0
    0.5370    4.5110   -8.1224 C   0  0  0  0  0  0  0  0  0  0  0  0
    0.7923    3.9367   -6.7962 C   0  0  0  0  0  0  0  0  0  0  0  0
    0.0736    4.2817   -5.6672 N   0  0  0  0  0  0  0  0  0  0  0  0
   -1.0722    5.1819   -5.6290 C   0  0  0  0  0  0  0  0  0  0  0  0
   -2.3930    4.4325   -5.5920 C   0  0  0  0  0  0  0  0  0  0  0  0
    1.7685    3.0186   -6.4081 C   0  0  0  0  0  0  0  0  0  0  0  0
    2.7574    2.3299   -7.3212 C   0  0  0  0  0  0  0  0  0  0  0  0
    2.4069    0.8804   -7.7750 C   0  0  0  0  0  0  0  0  0  0  0  0
    3.3587    0.5162   -8.9400 C   0  0  0  0  0  0  0  0  0  0  0  0
    0.9659    0.7637   -8.3006 C   0  0  0  0  0  0  0  0  0  0  0  0
    2.5969   -0.1469   -6.6399 C   0  0  0  0  0  0  0  0  0  0  0  0
    3.9740   -0.1716   -6.2312 O   0  0  0  0  0  0  0  0  0  0  0  0
    4.2601   -1.0394   -5.2205 C   0  0  0  0  0  0  0  0  0  0  0  0
    5.7455   -0.9466   -4.8588 C   0  0  1  0  0  0  0  0  0  0  0  0
    6.0486   -1.8906   -3.7677 N   0  0  0  0  0  0  0  0  0  0  0  0
    7.3913   -1.7503   -3.3363 N   0  0  0  0  0  0  0  0  0  0  0  0
    7.7912   -1.5685   -2.0029 C   0  0  0  0  0  0  0  0  0  0  0  0
    6.6975   -1.1714   -0.9741 C   0  0  1  0  0  0  0  0  0  0  0  0
    7.0986   -1.5376    0.3809 N   0  0  0  0  0  0  0  0  0  0  0  0
    7.1692   -2.8652    0.7569 C   0  0  0  0  0  0  0  0  0  0  0  0
    7.3857   -3.0581    2.2791 C   0  0  2  0  0  0  0  0  0  0  0  0
    8.2712   -4.2917    2.5964 C   0  0  0  0  0  0  0  0  0  0  0  0
    8.4147   -4.5012    4.1095 C   0  0  0  0  0  0  0  0  0  0  0  0
    9.6710   -4.1304    1.9881 C   0  0  0  0  0  0  0  0  0  0  0  0
    6.0439   -3.0918    2.9280 N   0  0  0  0  0  0  0  0  0  0  0  0
    5.4837   -1.8585    3.2643 C   0  0  0  0  0  0  0  0  0  0  0  0
    4.3047   -1.7202    4.2739 C   0  0  0  0  0  0  0  0  0  0  0  0
    4.9146   -1.6748    5.6789 C   0  0  0  0  0  0  0  0  0  0  0  0
    3.8584   -1.3411    6.7250 C   0  0  0  0  0  0  0  0  0  0  0  0
    2.6887   -2.2109    6.6267 N   0  0  0  0  0  0  0  0  0  0  0  0
    1.8408   -2.4285    7.7139 C   0  0  0  0  0  0  0  0  0  0  0  0
    2.2184   -1.9024    9.0107 C   0  0  0  0  0  0  0  0  0  0  0  0
    2.5213   -1.4694   10.0918 C   0  0  0  0  0  0  0  0  0  0  0  0
    2.8975   -0.9554   11.4348 C   0  0  0  0  0  0  0  0  0  0  0  0
    4.3296   -0.5504   11.4007 N   0  0  0  0  0  0  0  0  0  0  0  0
    4.5993    0.6158   10.5520 C   0  0  0  0  0  0  0  0  0  0  0  0
    4.9319   -0.3336   12.7182 C   0  0  0  0  0  0  0  0  0  0  0  0
    1.9356    0.1911   11.8123 C   0  0  0  0  0  0  0  0  0  0  0  0
    2.6559   -2.1215   12.4253 C   0  0  0  0  0  0  0  0  0  0  0  0
    0.7867   -3.0542    7.6371 O   0  0  0  0  0  0  0  0  0  0  0  0
    2.1128   -2.3803    5.2964 C   0  0  0  0  0  0  0  0  0  0  0  0
    3.1668   -2.7311    4.2523 C   0  0  0  0  0  0  0  0  0  0  0  0
    6.0367   -0.8182    2.8713 O   0  0  0  0  0  0  0  0  0  0  0  0
    5.2314   -4.2787    2.6858 C   0  0  0  0  0  0  0  0  0  0  0  0
    6.9881   -3.7955   -0.0245 O   0  0  0  0  0  0  0  0  0  0  0  0
    6.5084    0.3530   -1.0729 C   0  0  0  0  0  0  0  0  0  0  0  0
    5.1058    0.8740   -0.7098 C   0  0  1  0  0  0  0  0  0  0  0  0
    4.3116    1.2399   -1.9855 C   0  0  0  0  0  0  0  0  0  0  0  0
    2.9793    1.7549   -1.6209 N   0  0  0  0  0  0  0  0  0  0  0  0
    2.2420    0.8056   -0.7512 C   0  0  0  0  0  0  0  0  0  0  0  0
    3.1071    0.4277    0.4643 C   0  0  0  0  0  0  0  0  0  0  0  0
    4.3862   -0.0961    0.0678 O   0  0  0  0  0  0  0  0  0  0  0  0
    8.9857   -1.5980   -1.6790 O   0  0  0  0  0  0  0  0  0  0  0  0
    8.3799   -2.0875   -4.3656 C   0  0  0  0  0  0  0  0  0  0  0  0
    8.1284   -1.2642   -5.6321 C   0  0  0  0  0  0  0  0  0  0  0  0
    6.6513   -1.2902   -6.0480 C   0  0  0  0  0  0  0  0  0  0  0  0
    3.4307   -1.7208   -4.6309 O   0  0  0  0  0  0  0  0  0  0  0  0
    1.7163    2.9356   -4.9754 C   0  0  0  0  0  0  0  0  0  0  0  0
    0.6355    3.7021   -4.5468 C   0  0  0  0  0  0  0  0  0  0  0  0
    0.2948    3.8031   -3.1918 C   0  0  0  0  0  0  0  0  0  0  0  0
    1.0888    3.1270   -2.2576 C   0  0  0  0  0  0  0  0  0  0  0  0
    2.2001    2.3586   -2.6230 C   0  0  0  0  0  0  0  0  0  0  0  0
    2.5049    2.2833   -3.9950 C   0  0  0  0  0  0  0  0  0  0  0  0
    3.7072   -0.4926    4.0634 F   0  0  0  0  0  0  0  0  0  0  0  0
    3.2887    8.2326   -7.5550 H   0  0  0  0  0  0  0  0  0  0  0  0
    2.9805    7.8247   -9.2328 H   0  0  0  0  0  0  0  0  0  0  0  0
    1.6309    8.3072   -8.1749 H   0  0  0  0  0  0  0  0  0  0  0  0
    2.0759    6.2670   -6.7591 H   0  0  0  0  0  0  0  0  0  0  0  0
    4.0175    5.3019   -5.9901 H   0  0  0  0  0  0  0  0  0  0  0  0
    5.3608    5.0532   -7.1239 H   0  0  0  0  0  0  0  0  0  0  0  0
    4.8119    6.7049   -6.7817 H   0  0  0  0  0  0  0  0  0  0  0  0
   -0.1240    5.9846  -11.5931 H   0  0  0  0  0  0  0  0  0  0  0  0
   -1.5084    4.0600  -10.8116 H   0  0  0  0  0  0  0  0  0  0  0  0
   -1.0636    3.1213   -8.5537 H   0  0  0  0  0  0  0  0  0  0  0  0
   -0.9651    5.8240   -4.7479 H   0  0  0  0  0  0  0  0  0  0  0  0
   -1.0333    5.8434   -6.4991 H   0  0  0  0  0  0  0  0  0  0  0  0
   -2.4769    3.8188   -4.6891 H   0  0  0  0  0  0  0  0  0  0  0  0
   -3.2287    5.1397   -5.5994 H   0  0  0  0  0  0  0  0  0  0  0  0
   -2.4990    3.7691   -6.4565 H   0  0  0  0  0  0  0  0  0  0  0  0
    2.8765    2.9487   -8.2198 H   0  0  0  0  0  0  0  0  0  0  0  0
    3.7434    2.3415   -6.8403 H   0  0  0  0  0  0  0  0  0  0  0  0
    4.4103    0.6003   -8.6453 H   0  0  0  0  0  0  0  0  0  0  0  0
    3.1886   -0.5108   -9.2837 H   0  0  0  0  0  0  0  0  0  0  0  0
    3.2045    1.1803   -9.7978 H   0  0  0  0  0  0  0  0  0  0  0  0
    0.2287    0.9753   -7.5188 H   0  0  0  0  0  0  0  0  0  0  0  0
    0.7961    1.4484   -9.1380 H   0  0  0  0  0  0  0  0  0  0  0  0
    0.7609   -0.2493   -8.6675 H   0  0  0  0  0  0  0  0  0  0  0  0
    1.9557    0.0908   -5.7847 H   0  0  0  0  0  0  0  0  0  0  0  0
    2.3286   -1.1494   -6.9976 H   0  0  0  0  0  0  0  0  0  0  0  0
    5.9265    0.0788   -4.5113 H   0  0  0  0  0  0  0  0  0  0  0  0
    5.3456   -1.8460   -3.0310 H   0  0  0  0  0  0  0  0  0  0  0  0
    5.7782   -1.7227   -1.1815 H   0  0  0  0  0  0  0  0  0  0  0  0
    6.8018   -0.9115    1.1355 H   0  0  0  0  0  0  0  0  0  0  0  0
    7.9245   -2.1772    2.6548 H   0  0  0  0  0  0  0  0  0  0  0  0
    7.8338   -5.2010    2.1671 H   0  0  0  0  0  0  0  0  0  0  0  0
    7.4524   -4.7243    4.5780 H   0  0  0  0  0  0  0  0  0  0  0  0
    9.0818   -5.3434    4.3223 H   0  0  0  0  0  0  0  0  0  0  0  0
    8.8300   -3.6116    4.5954 H   0  0  0  0  0  0  0  0  0  0  0  0
   10.2881   -5.0083    2.2045 H   0  0  0  0  0  0  0  0  0  0  0  0
    9.6261   -4.0233    0.9000 H   0  0  0  0  0  0  0  0  0  0  0  0
   10.1823   -3.2508    2.3943 H   0  0  0  0  0  0  0  0  0  0  0  0
    5.3808   -2.6410    5.9143 H   0  0  0  0  0  0  0  0  0  0  0  0
    5.7074   -0.9171    5.7286 H   0  0  0  0  0  0  0  0  0  0  0  0
    4.3156   -1.4278    7.7157 H   0  0  0  0  0  0  0  0  0  0  0  0
    3.5114   -0.3064    6.6104 H   0  0  0  0  0  0  0  0  0  0  0  0
    4.1969    1.5432   10.9737 H   0  0  0  0  0  0  0  0  0  0  0  0
    5.6807    0.7493   10.4305 H   0  0  0  0  0  0  0  0  0  0  0  0
    4.1997    0.4932    9.5402 H   0  0  0  0  0  0  0  0  0  0  0  0
    4.9400   -1.2525   13.3139 H   0  0  0  0  0  0  0  0  0  0  0  0
    5.9853   -0.0469   12.6152 H   0  0  0  0  0  0  0  0  0  0  0  0
    4.4250    0.4536   13.2863 H   0  0  0  0  0  0  0  0  0  0  0  0
    2.1653    0.6048   12.8011 H   0  0  0  0  0  0  0  0  0  0  0  0
    1.9617    1.0124   11.0863 H   0  0  0  0  0  0  0  0  0  0  0  0
    0.8959   -0.1595   11.8431 H   0  0  0  0  0  0  0  0  0  0  0  0
    2.7703   -1.8068   13.4686 H   0  0  0  0  0  0  0  0  0  0  0  0
    1.6388   -2.5235   12.3253 H   0  0  0  0  0  0  0  0  0  0  0  0
    3.3466   -2.9534   12.2395 H   0  0  0  0  0  0  0  0  0  0  0  0
    1.3502   -3.1682    5.3134 H   0  0  0  0  0  0  0  0  0  0  0  0
    1.6020   -1.4446    5.0365 H   0  0  0  0  0  0  0  0  0  0  0  0
    2.6942   -2.7558    3.2659 H   0  0  0  0  0  0  0  0  0  0  0  0
    3.5261   -3.7335    4.4930 H   0  0  0  0  0  0  0  0  0  0  0  0
    5.1273   -4.8273    3.6235 H   0  0  0  0  0  0  0  0  0  0  0  0
    4.2585   -3.9947    2.2822 H   0  0  0  0  0  0  0  0  0  0  0  0
    5.6950   -4.9450    1.9553 H   0  0  0  0  0  0  0  0  0  0  0  0
    7.2261    0.8375   -0.3941 H   0  0  0  0  0  0  0  0  0  0  0  0
    6.7854    0.7272   -2.0667 H   0  0  0  0  0  0  0  0  0  0  0  0
    5.2276    1.7802   -0.1008 H   0  0  0  0  0  0  0  0  0  0  0  0
    4.8724    1.9989   -2.5437 H   0  0  0  0  0  0  0  0  0  0  0  0
    4.1952    0.3464   -2.6076 H   0  0  0  0  0  0  0  0  0  0  0  0
    1.2995    1.2234   -0.3812 H   0  0  0  0  0  0  0  0  0  0  0  0
    2.0094   -0.0987   -1.3292 H   0  0  0  0  0  0  0  0  0  0  0  0
    3.2654    1.2918    1.1197 H   0  0  0  0  0  0  0  0  0  0  0  0
    2.6032   -0.3476    1.0489 H   0  0  0  0  0  0  0  0  0  0  0  0
    9.3981   -1.9090   -4.0062 H   0  0  0  0  0  0  0  0  0  0  0  0
    8.2860   -3.1603   -4.5750 H   0  0  0  0  0  0  0  0  0  0  0  0
    8.4164   -0.2223   -5.4408 H   0  0  0  0  0  0  0  0  0  0  0  0
    8.7586   -1.6276   -6.4513 H   0  0  0  0  0  0  0  0  0  0  0  0
    6.3996   -2.2834   -6.4431 H   0  0  0  0  0  0  0  0  0  0  0  0
    6.4947   -0.5812   -6.8698 H   0  0  0  0  0  0  0  0  0  0  0  0
   -0.5454    4.4014   -2.8571 H   0  0  0  0  0  0  0  0  0  0  0  0
    0.8417    3.2513   -1.2044 H   0  0  0  0  0  0  0  0  0  0  0  0
    3.3585    1.7161   -4.3395 H   0  0  0  0  0  0  0  0  0  0  0  0
  1  2  1  0
  2  3  1  0
  2  5  1  0
  3  4  1  0
  5  6  2  0
  5 10  1  0
  6  7  1  0
  7  8  2  0
  8  9  1  0
  9 10  2  0
 10 11  1  0
 11 12  1  0
 11 15  2  0
 12 13  1  0
 12 68  1  0
 13 14  1  0
 15 16  1  0
 15 67  1  0
 16 17  1  0
 17 18  1  0
 17 19  1  0
 17 20  1  0
 20 21  1  0
 21 22  1  0
 22 23  1  0
 22 66  2  0
 23 24  1  0
 23 65  1  0
 24 25  1  0
 25 26  1  0
 25 63  1  0
 26 27  1  0
 26 62  2  0
 27 28  1  0
 27 55  1  0
 28 29  1  0
 29 30  1  0
 29 54  2  0
 30 31  1  0
 30 34  1  0
 31 32  1  0
 31 33  1  0
 34 35  1  0
 34 53  1  0
 35 36  1  0
 35 52  2  0
 36 37  1  0
 36 51  1  0
 36 73  1  0
 37 38  1  0
 38 39  1  0
 39 40  1  0
 39 50  1  0
 40 41  1  0
 40 49  2  0
 42 43  1  0
 43 44  1  0
 43 47  1  0
 43 48  1  0
 44 45  1  0
 44 46  1  0
 50 51  1  0
 55 56  1  0
 56 57  1  0
 56 61  1  0
 57 58  1  0
 58 59  1  0
 58 71  1  0
 59 60  1  0
 60 61  1  0
 63 64  1  0
 64 65  1  0
 67 68  2  0
 67 72  1  0
 68 69  1  0
 69 70  2  0
 70 71  1  0
 71 72  2  0
  1 74  1  0
  1 75  1  0
  1 76  1  0
  2 77  1  1
  4 78  1  0
  4 79  1  0
  4 80  1  0
  7 81  1  0
  8 82  1  0
  9 83  1  0
 13 84  1  0
 13 85  1  0
 14 86  1  0
 14 87  1  0
 14 88  1  0
 16 89  1  0
 16 90  1  0
 18 91  1  0
 18 92  1  0
 18 93  1  0
 19 94  1  0
 19 95  1  0
 19 96  1  0
 20 97  1  0
 20 98  1  0
 23 99  1  1
 24100  1  0
 27101  1  6
 28102  1  0
 30103  1  1
 31104  1  0
 32105  1  0
 32106  1  0
 32107  1  0
 33108  1  0
 33109  1  0
 33110  1  0
 37111  1  0
 37112  1  0
 38113  1  0
 38114  1  0
 45115  1  0
 45116  1  0
 45117  1  0
 46118  1  0
 46119  1  0
 46120  1  0
 47121  1  0
 47122  1  0
 47123  1  0
 48124  1  0
 48125  1  0
 48126  1  0
 50127  1  0
 50128  1  0
 51129  1  0
 51130  1  0
 53131  1  0
 53132  1  0
 53133  1  0
 55134  1  0
 55135  1  0
 56136  1  1
 57137  1  0
 57138  1  0
 59139  1  0
 59140  1  0
 60141  1  0
 60142  1  0
 63143  1  0
 63144  1  0
 64145  1  0
 64146  1  0
 65147  1  0
 65148  1  0
 69149  1  0
 70150  1  0
 72151  1  0
 41 42  3  0
M  END
$$$$
