obj06
     RDKit          3D

151157  0  0  0  0  0  0  0  0999 V2000
   17.2289   22.3727   61.5034 C   0  0  0  0  0  0  0  0  0  0  0  0
   16.5625   23.6259   60.9286 C   0  0  2  0  0  0  0  0  0  0  0  0
   16.8038   24.7391   61.8041 O   0  0  0  0  0  0  0  0  0  0  0  0
   18.0514   25.3744   61.5575 C   0  0  0  0  0  0  0  0  0  0  0  0
   15.0548   23.4436   60.7575 C   0  0  0  0  0  0  0  0  0  0  0  0
   14.4346   22.5794   61.6148 N   0  0  0  0  0  0  0  0  0  0  0  0
   13.1053   22.3925   61.4835 C   0  0  0  0  0  0  0  0  0  0  0  0
   12.3354   23.0168   60.5217 C   0  0  0  0  0  0  0  0  0  0  0  0
   12.9661   23.8944   59.6509 C   0  0  0  0  0  0  0  0  0  0  0  0
   14.3415   24.1383   59.7647 C   0  0  0  0  0  0  0  0  0  0  0  0
   14.9709   25.0892   58.8368 C   0  0  0  0  0  0  0  0  0  0  0  0
   15.3720   24.7445   57.5602 N   0  0  0  0  0  0  0  0  0  0  0  0
   15.2090   23.4365   56.9368 C   0  0  0  0  0  0  0  0  0  0  0  0
   14.0146   23.3887   55.9970 C   0  0  0  0  0  0  0  0  0  0  0  0
   15.3021   26.4278   59.0367 C   0  0  0  0  0  0  0  0  0  0  0  0
   15.0338   27.2227   60.2938 C   0  0  0  0  0  0  0  0  0  0  0  0
   13.7537   28.1118   60.3186 C   0  0  0  0  0  0  0  0  0  0  0  0
   12.4959   27.3562   59.8570 C   0  0  0  0  0  0  0  0  0  0  0  0
   13.5235   28.5545   61.7833 C   0  0  0  0  0  0  0  0  0  0  0  0
   13.9170   29.3685   59.4388 C   0  0  0  0  0  0  0  0  0  0  0  0
   14.9992   30.1620   59.9443 O   0  0  0  0  0  0  0  0  0  0  0  0
   15.2828   31.2769   59.2201 C   0  0  0  0  0  0  0  0  0  0  0  0
   16.4975   31.9850   59.8216 C   0  0  1  0  0  0  0  0  0  0  0  0
   16.7609   33.2245   59.0766 N   0  0  0  0  0  0  0  0  0  0  0  0
   17.9558   33.8298   59.5143 N   0  0  0  0  0  0  0  0  0  0  0  0
   19.0024   34.2326   58.6762 C   0  0  0  0  0  0  0  0  0  0  0  0
   19.0499   33.6469   57.2379 C   0  0  1  0  0  0  0  0  0  0  0  0
   19.6107   34.6512   56.3385 N   0  0  0  0  0  0  0  0  0  0  0  0
   18.8750   35.7775   56.0393 C   0  0  0  0  0  0  0  0  0  0  0  0
   19.5229   36.6799   54.9705 C   0  0  2  0  0  0  0  0  0  0  0  0
   19.1430   38.1727   55.1608 C   0  0  0  0  0  0  0  0  0  0  0  0
   19.6896   39.0402   54.0189 C   0  0  0  0  0  0  0  0  0  0  0  0
   19.7017   38.7044   56.4901 C   0  0  0  0  0  0  0  0  0  0  0  0
   19.1716   36.1344   53.6302 N   0  0  0  0  0  0  0  0  0  0  0  0
   20.0873   35.2484   53.0569 C   0  0  0  0  0  0  0  0  0  0  0  0
   19.9142   34.8445   51.5727 C   0  0  0  0  0  0  0  0  0  0  0  0
   19.8498   36.0944   50.6724 C   0  0  0  0  0  0  0  0  0  0  0  0
   19.8480   35.6999   49.2018 C   0  0  0  0  0  0  0  0  0  0  0  0
   21.0281   34.8999   48.9286 N   0  0  0  0  0  0  0  0  0  0  0  0
   22.1534   35.5477   48.4251 C   0  0  0  0  0  0  0  0  0  0  0  0
   23.4154   34.8421   48.4299 C   0  0  0  0  0  0  0  0  0  0  0  0
   24.4657   34.2579   48.4632 C   0  0  0  0  0  0  0  0  0  0  0  0
   25.7561   33.5348   48.5310 C   0  0  0  0  0  0  0  0  0  0  0  0
   25.8842   32.5045   47.4611 N   0  0  0  0  0  0  0  0  0  0  0  0
   24.9238   31.4032   47.5623 C   0  0  0  0  0  0  0  0  0  0  0  0
   25.8465   33.0482   46.0974 C   0  0  0  0  0  0  0  0  0  0  0  0
   26.9102   34.5590   48.4375 C   0  0  0  0  0  0  0  0  0  0  0  0
   25.8677   32.8860   49.9321 C   0  0  0  0  0  0  0  0  0  0  0  0
   22.1431   36.6954   47.9968 O   0  0  0  0  0  0  0  0  0  0  0  0
   21.0725   33.6432   49.6625 C   0  0  0  0  0  0  0  0  0  0  0  0
   21.0832   33.9238   51.1588 C   0  0  0  0  0  0  0  0  0  0  0  0
   21.0497   34.8318   53.7175 O   0  0  0  0  0  0  0  0  0  0  0  0
   17.7511   36.1198   53.2719 C   0  0  0  0  0  0  0  0  0  0  0  0
   17.7624   35.9993   56.5193 O   0  0  0  0  0  0  0  0  0  0  0  0
   19.9234   32.3801   57.2756 C   0  0  0  0  0  0  0  0  0  0  0  0
   19.5070   31.2835   56.2810 C   0  0  1  0  0  0  0  0  0  0  0  0
   18.3820   30.3825   56.8541 C   0  0  0  0  0  0  0  0  0  0  0  0
   18.0362   29.3507   55.8615 N   0  0  0  0  0  0  0  0  0  0  0  0
   17.6437   29.9539   54.5654 C   0  0  0  0  0  0  0  0  0  0  0  0
   18.7676   30.8796   54.0690 C   0  0  0  0  0  0  0  0  0  0  0  0
   19.1102   31.8870   55.0368 O   0  0  0  0  0  0  0  0  0  0  0  0
   19.9238   34.9453   59.0951 O   0  0  0  0  0  0  0  0  0  0  0  0
   17.8910   34.3060   60.8993 C   0  0  0  0  0  0  0  0  0  0  0  0
   17.4925   33.1560   61.8307 C   0  0  0  0  0  0  0  0  0  0  0  0
   16.2890   32.3686   61.2918 C   0  0  0  0  0  0  0  0  0  0  0  0
   14.7168   31.6029   58.1857 O   0  0  0  0  0  0  0  0  0  0  0  0
   16.0275   26.8611   57.8703 C   0  0  0  0  0  0  0  0  0  0  0  0
   16.0277   25.8031   56.9645 C   0  0  0  0  0  0  0  0  0  0  0  0
   16.6366   25.9069   55.7092 C   0  0  0  0  0  0  0  0  0  0  0  0
   17.2777   27.1080   55.3816 C   0  0  0  0  0  0  0  0  0  0  0  0
   17.3276   28.2065   56.2485 C   0  0  0  0  0  0  0  0  0  0  0  0
   16.7018   28.0579   57.5019 C   0  0  0  0  0  0  0  0  0  0  0  0
   18.7633   34.1232   51.3880 F   0  0  0  0  0  0  0  0  0  0  0  0
   16.9256   22.2001   62.5430 H   0  0  0  0  0  0  0  0  0  0  0  0
   16.9833   21.4813   60.9130 H   0  0  0  0  0  0  0  0  0  0  0  0
   18.3184   22.4806   61.5140 H   0  0  0  0  0  0  0  0  0  0  0  0
   17.0081   23.8094   59.9436 H   0  0  0  0  0  0  0  0  0  0  0  0
   18.1375   26.2281   62.2361 H   0  0  0  0  0  0  0  0  0  0  0  0
   18.8839   24.6935   61.7546 H   0  0  0  0  0  0  0  0  0  0  0  0
   18.1007   25.7449   60.5282 H   0  0  0  0  0  0  0  0  0  0  0  0
   12.6621   21.7043   62.1958 H   0  0  0  0  0  0  0  0  0  0  0  0
   11.2704   22.8295   60.4554 H   0  0  0  0  0  0  0  0  0  0  0  0
   12.3817   24.4047   58.8895 H   0  0  0  0  0  0  0  0  0  0  0  0
   16.1341   23.2055   56.3980 H   0  0  0  0  0  0  0  0  0  0  0  0
   15.1109   22.6785   57.7193 H   0  0  0  0  0  0  0  0  0  0  0  0
   13.0831   23.6122   56.5272 H   0  0  0  0  0  0  0  0  0  0  0  0
   14.1176   24.1151   55.1848 H   0  0  0  0  0  0  0  0  0  0  0  0
   13.9246   22.3922   55.5526 H   0  0  0  0  0  0  0  0  0  0  0  0
   14.9690   26.5204   61.1337 H   0  0  0  0  0  0  0  0  0  0  0  0
   15.9180   27.8353   60.5112 H   0  0  0  0  0  0  0  0  0  0  0  0
   12.3109   26.4848   60.4912 H   0  0  0  0  0  0  0  0  0  0  0  0
   11.6080   27.9958   59.9257 H   0  0  0  0  0  0  0  0  0  0  0  0
   12.5745   27.0262   58.8160 H   0  0  0  0  0  0  0  0  0  0  0  0
   13.2781   27.6968   62.4196 H   0  0  0  0  0  0  0  0  0  0  0  0
   14.4144   29.0322   62.2046 H   0  0  0  0  0  0  0  0  0  0  0  0
   12.6951   29.2674   61.8548 H   0  0  0  0  0  0  0  0  0  0  0  0
   14.1038   29.0950   58.3946 H   0  0  0  0  0  0  0  0  0  0  0  0
   13.0022   29.9746   59.4728 H   0  0  0  0  0  0  0  0  0  0  0  0
   17.3494   31.3029   59.7109 H   0  0  0  0  0  0  0  0  0  0  0  0
   16.6528   33.1104   58.0693 H   0  0  0  0  0  0  0  0  0  0  0  0
   18.0506   33.4272   56.8640 H   0  0  0  0  0  0  0  0  0  0  0  0
   20.2744   34.3511   55.6238 H   0  0  0  0  0  0  0  0  0  0  0  0
   20.6129   36.6151   55.1001 H   0  0  0  0  0  0  0  0  0  0  0  0
   18.0518   38.2879   55.1882 H   0  0  0  0  0  0  0  0  0  0  0  0
   19.4783   40.1002   54.2010 H   0  0  0  0  0  0  0  0  0  0  0  0
   20.7760   38.9237   53.9208 H   0  0  0  0  0  0  0  0  0  0  0  0
   19.2307   38.7776   53.0597 H   0  0  0  0  0  0  0  0  0  0  0  0
   19.3084   38.1453   57.3435 H   0  0  0  0  0  0  0  0  0  0  0  0
   20.7956   38.6352   56.5143 H   0  0  0  0  0  0  0  0  0  0  0  0
   19.4288   39.7550   56.6318 H   0  0  0  0  0  0  0  0  0  0  0  0
   18.9515   36.6864   50.8666 H   0  0  0  0  0  0  0  0  0  0  0  0
   20.7059   36.7465   50.8858 H   0  0  0  0  0  0  0  0  0  0  0  0
   18.9633   35.1019   48.9581 H   0  0  0  0  0  0  0  0  0  0  0  0
   19.8211   36.5927   48.5709 H   0  0  0  0  0  0  0  0  0  0  0  0
   25.0298   30.8544   48.5034 H   0  0  0  0  0  0  0  0  0  0  0  0
   23.8839   31.7374   47.4680 H   0  0  0  0  0  0  0  0  0  0  0  0
   25.1085   30.6622   46.7747 H   0  0  0  0  0  0  0  0  0  0  0  0
   26.6101   33.8118   45.9313 H   0  0  0  0  0  0  0  0  0  0  0  0
   26.0653   32.2574   45.3722 H   0  0  0  0  0  0  0  0  0  0  0  0
   24.8677   33.4706   45.8444 H   0  0  0  0  0  0  0  0  0  0  0  0
   26.9200   35.2288   49.3051 H   0  0  0  0  0  0  0  0  0  0  0  0
   27.8834   34.0559   48.4037 H   0  0  0  0  0  0  0  0  0  0  0  0
   26.8277   35.2085   47.5572 H   0  0  0  0  0  0  0  0  0  0  0  0
   25.9207   33.6525   50.7180 H   0  0  0  0  0  0  0  0  0  0  0  0
   24.9970   32.2647   50.1781 H   0  0  0  0  0  0  0  0  0  0  0  0
   26.7685   32.2686   50.0165 H   0  0  0  0  0  0  0  0  0  0  0  0
   20.1866   33.0605   49.3892 H   0  0  0  0  0  0  0  0  0  0  0  0
   21.9451   33.0458   49.3818 H   0  0  0  0  0  0  0  0  0  0  0  0
   22.0417   34.3876   51.4280 H   0  0  0  0  0  0  0  0  0  0  0  0
   21.0192   32.9716   51.6996 H   0  0  0  0  0  0  0  0  0  0  0  0
   17.2228   35.4283   53.9334 H   0  0  0  0  0  0  0  0  0  0  0  0
   17.3330   37.1239   53.3748 H   0  0  0  0  0  0  0  0  0  0  0  0
   17.5788   35.7823   52.2523 H   0  0  0  0  0  0  0  0  0  0  0  0
   20.9590   32.6631   57.0484 H   0  0  0  0  0  0  0  0  0  0  0  0
   19.9529   31.9431   58.2839 H   0  0  0  0  0  0  0  0  0  0  0  0
   20.3870   30.6539   56.0890 H   0  0  0  0  0  0  0  0  0  0  0  0
   18.7418   29.9231   57.7841 H   0  0  0  0  0  0  0  0  0  0  0  0
   17.4926   30.9841   57.0717 H   0  0  0  0  0  0  0  0  0  0  0  0
   17.4494   29.2087   53.7879 H   0  0  0  0  0  0  0  0  0  0  0  0
   16.7253   30.5377   54.7095 H   0  0  0  0  0  0  0  0  0  0  0  0
   19.6707   30.3039   53.8277 H   0  0  0  0  0  0  0  0  0  0  0  0
   18.4488   31.3953   53.1591 H   0  0  0  0  0  0  0  0  0  0  0  0
   18.8517   34.7240   61.2159 H   0  0  0  0  0  0  0  0  0  0  0  0
   17.1477   35.1115   60.9357 H   0  0  0  0  0  0  0  0  0  0  0  0
   18.3421   32.4687   61.9264 H   0  0  0  0  0  0  0  0  0  0  0  0
   17.2750   33.5420   62.8320 H   0  0  0  0  0  0  0  0  0  0  0  0
   15.3776   32.9740   61.3986 H   0  0  0  0  0  0  0  0  0  0  0  0
   16.1404   31.4733   61.9067 H   0  0  0  0  0  0  0  0  0  0  0  0
   16.6415   25.0807   55.0057 H   0  0  0  0  0  0  0  0  0  0  0  0
   17.7936   27.1497   54.4254 H   0  0  0  0  0  0  0  0  0  0  0  0
   16.7161   28.8649   58.2206 H   0  0  0  0  0  0  0  0  0  0  0  0
  1  2  1  0
  2  3  1  0
  2  5  1  0
  3  4  1  0
  5  6  2  0
  5 10  1  0
  6  7  1  0
  7  8  2  0
  8  9  1  0
  9 10  2  0
 10 11  1  0
 11 12  1  0
 11 15  2  0
 12 13  1  0
 12 68  1  0
 13 14  1  0
 15 16  1  0
 15 67  1  0
 16 17  1  0
 17 18  1  0
 17 19  1  0
 17 20  1  0
 20 21  1  0
 21 22  1  0
 22 23  1  0
 22 66  2  0
 23 24  1  0
 23 65  1  0
 24 25  1  0
 25 26  1  0
 25 63  1  0
 26 27  1  0
 26 62  2  0
 27 28  1  0
 27 55  1  0
 28 29  1  0
 29 30  1  0
 29 54  2  0
 30 31  1  0
 30 34  1  0
 31 32  1  0
 31 33  1  0
 34 35  1  0
 34 53  1  0
 35 36  1  0
 35 52  2  0
 36 37  1  0
 36 51  1  0
 36 73  1  0
 37 38  1  0
 38 39  1  0
 39 40  1  0
 39 50  1  0
 40 41  1  0
 40 49  2  0
 42 43  1  0
 43 44  1  0
 43 47  1  0
 43 48  1  0
 44 45  1  0
 44 46  1  0
 50 51  1  0
 55 56  1  0
 56 57  1  0
 56 61  1  0
 57 58  1  0
 58 59  1  0
 58 71  1  0
 59 60  1  0
 60 61  1  0
 63 64  1  0
 64 65  1  0
 67 68  2  0
 67 72  1  0
 68 69  1  0
 69 70  2  0
 70 71  1  0
 71 72  2  0
  1 74  1  0
  1 75  1  0
  1 76  1  0
  2 77  1  6
  4 78  1  0
  4 79  1  0
  4 80  1  0
  7 81  1  0
  8 82  1  0
  9 83  1  0
 13 84  1  0
 13 85  1  0
 14 86  1  0
 14 87  1  0
 14 88  1  0
 16 89  1  0
 16 90  1  0
 18 91  1  0
 18 92  1  0
 18 93  1  0
 19 94  1  0
 19 95  1  0
 19 96  1  0
 20 97  1  0
 20 98  1  0
 23 99  1  1
 24100  1  0
 27101  1  6
 28102  1  0
 30103  1  1
 31104  1  0
 32105  1  0
 32106  1  0
 32107  1  0
 33108  1  0
 33109  1  0
 33110  1  0
 37111  1  0
 37112  1  0
 38113  1  0
 38114  1  0
 45115  1  0
 45116  1  0
 45117  1  0
 46118  1  0
 46119  1  0
 46120  1  0
 47121  1  0
 47122  1  0
 47123  1  0
 48124  1  0
 48125  1  0
 48126  1  0
 50127  1  0
 50128  1  0
 51129  1  0
 51130  1  0
 53131  1  0
 53132  1  0
 53133  1  0
 55134  1  0
 55135  1  0
 56136  1  6
 57137  1  0
 57138  1  0
 59139  1  0
 59140  1  0
 60141  1  0
 60142  1  0
 63143  1  0
 63144  1  0
 64145  1  0
 64146  1  0
 65147  1  0
 65148  1  0
 69149  1  0
 70150  1  0
 72151  1  0
 41 42  3  0
M  END
$$$$
