151       
obj06
C 17.228901 22.372700 61.503399
C 16.562500 23.625900 60.928600
O 16.803801 24.739100 61.804100
C 18.051399 25.374399 61.557499
C 15.054800 23.443600 60.757500
N 14.434600 22.579399 61.614799
C 13.105300 22.392500 61.483501
C 12.335400 23.016800 60.521702
C 12.966100 23.894400 59.650902
C 14.341500 24.138300 59.764702
C 14.970900 25.089199 58.836800
N 15.372000 24.744499 57.560200
C 15.209000 23.436501 56.936798
C 14.014600 23.388700 55.997002
C 15.302100 26.427799 59.036701
C 15.033800 27.222700 60.293800
C 13.753700 28.111799 60.318600
C 12.495900 27.356199 59.856998
C 13.523500 28.554501 61.783298
C 13.917000 29.368500 59.438801
O 14.999200 30.162001 59.944302
C 15.282800 31.276899 59.220100
C 16.497499 31.985001 59.821602
N 16.760900 33.224499 59.076599
N 17.955799 33.829800 59.514301
C 19.002399 34.232601 58.676201
C 19.049900 33.646900 57.237900
N 19.610701 34.651199 56.338501
C 18.875000 35.777500 56.039299
C 19.522900 36.679901 54.970501
C 19.143000 38.172699 55.160801
C 19.689600 39.040199 54.018902
C 19.701700 38.704399 56.490101
N 19.171600 36.134399 53.630199
C 20.087299 35.248402 53.056900
C 19.914200 34.844501 51.572701
C 19.849800 36.094398 50.672401
C 19.848000 35.699902 49.201801
N 21.028099 34.899899 48.928600
C 22.153400 35.547699 48.425098
C 23.415400 34.842098 48.429901
C 24.465700 34.257900 48.463200
C 25.756100 33.534801 48.530998
N 25.884199 32.504501 47.461102
C 24.923800 31.403200 47.562302
C 25.846500 33.048199 46.097401
C 26.910200 34.558998 48.437500
C 25.867701 32.886002 49.932098
O 22.143101 36.695400 47.996799
C 21.072500 33.643200 49.662498
C 21.083200 33.923801 51.158798
O 21.049700 34.831799 53.717499
C 17.751101 36.119801 53.271900
O 17.762400 35.999298 56.519299
C 19.923401 32.380100 57.275600
C 19.507000 31.283501 56.280998
C 18.382000 30.382500 56.854099
N 18.036200 29.350700 55.861500
C 17.643700 29.953899 54.565399
C 18.767599 30.879601 54.069000
O 19.110201 31.886999 55.036800
O 19.923800 34.945301 59.095100
C 17.891001 34.306000 60.899300
C 17.492500 33.155998 61.830700
C 16.289000 32.368599 61.291801
O 14.716800 31.602900 58.185699
C 16.027500 26.861099 57.870300
C 16.027700 25.803101 56.964500
C 16.636600 25.906900 55.709202
C 17.277700 27.108000 55.381599
C 17.327600 28.206499 56.248501
C 16.701799 28.057899 57.501900
F 18.763300 34.123199 51.388000
H 16.925600 22.200100 62.542999
H 16.983299 21.481300 60.912998
H 18.318399 22.480600 61.514000
H 17.008101 23.809401 59.943600
H 18.137501 26.228100 62.236099
H 18.883900 24.693501 61.754601
H 18.100700 25.744900 60.528198
H 12.662100 21.704300 62.195801
H 11.270400 22.829500 60.455399
H 12.381700 24.404699 58.889500
H 16.134100 23.205500 56.397999
H 15.110900 22.678499 57.719299
H 13.083100 23.612200 56.527199
H 14.117600 24.115101 55.184799
H 13.924600 22.392200 55.552601
H 14.969000 26.520399 61.133701
H 15.918000 27.835300 60.511200
H 12.310900 26.484800 60.491199
H 11.608000 27.995800 59.925701
H 12.574500 27.026199 58.816002
H 13.278100 27.696800 62.419601
H 14.414400 29.032200 62.204601
H 12.695100 29.267401 61.854801
H 14.103800 29.094999 58.394600
H 13.002200 29.974600 59.472801
H 17.349400 31.302900 59.710899
H 16.652800 33.110401 58.069302
H 18.050600 33.427200 56.863998
H 20.274401 34.351101 55.623798
H 20.612900 36.615101 55.100101
H 18.051800 38.287899 55.188202
H 19.478300 40.100201 54.201000
H 20.775999 38.923698 53.920799
H 19.230700 38.777599 53.059700
H 19.308399 38.145302 57.343498
H 20.795601 38.635201 56.514301
H 19.428801 39.755001 56.631802
H 18.951500 36.686401 50.866600
H 20.705900 36.746498 50.885799
H 18.963301 35.101898 48.958099
H 19.821100 36.592701 48.570900
H 25.029800 30.854401 48.503399
H 23.883900 31.737400 47.467999
H 25.108500 30.662201 46.774700
H 26.610100 33.811798 45.931301
H 26.065300 32.257401 45.372200
H 24.867701 33.470600 45.844398
H 26.920000 35.228802 49.305099
H 27.883400 34.055901 48.403702
H 26.827700 35.208500 47.557201
H 25.920700 33.652500 50.717999
H 24.997000 32.264702 50.178101
H 26.768499 32.268600 50.016499
H 20.186600 33.060501 49.389198
H 21.945101 33.045799 49.381802
H 22.041700 34.387600 51.428001
H 21.019199 32.971600 51.699600
H 17.222799 35.428299 53.933399
H 17.333000 37.123901 53.374802
H 17.578800 35.782299 52.252300
H 20.959000 32.663101 57.048401
H 19.952900 31.943100 58.283901
H 20.386999 30.653900 56.089001
H 18.741800 29.923100 57.784100
H 17.492599 30.984100 57.071701
H 17.449400 29.208700 53.787899
H 16.725300 30.537701 54.709499
H 19.670700 30.303900 53.827702
H 18.448799 31.395300 53.159100
H 18.851700 34.723999 61.215900
H 17.147699 35.111500 60.935699
H 18.342100 32.468700 61.926399
H 17.275000 33.542000 62.832001
H 15.377600 32.973999 61.398602
H 16.140400 31.473301 61.906700
H 16.641500 25.080700 55.005699
H 17.793600 27.149700 54.425400
H 16.716101 28.864901 58.220600
