obj13
     RDKit          3D

151157  0  0  0  0  0  0  0  0999 V2000
   16.1443   23.0353   62.4669 C   0  0  0  0  0  0  0  0  0  0  0  0
   15.6233   24.2154   61.6395 C   0  0  2  0  0  0  0  0  0  0  0  0
   15.8838   25.4434   62.3372 O   0  0  0  0  0  0  0  0  0  0  0  0
   17.2131   25.9119   62.1615 C   0  0  0  0  0  0  0  0  0  0  0  0
   14.1233   24.1074   61.3621 C   0  0  0  0  0  0  0  0  0  0  0  0
   13.3844   23.3716   62.2460 N   0  0  0  0  0  0  0  0  0  0  0  0
   12.0566   23.2565   62.0315 C   0  0  0  0  0  0  0  0  0  0  0  0
   11.4021   23.8326   60.9614 C   0  0  0  0  0  0  0  0  0  0  0  0
   12.1533   24.5784   60.0610 C   0  0  0  0  0  0  0  0  0  0  0  0
   13.5335   24.7352   60.2490 C   0  0  0  0  0  0  0  0  0  0  0  0
   14.2980   25.5239   59.2735 C   0  0  0  0  0  0  0  0  0  0  0  0
   14.7332   25.0188   58.0632 N   0  0  0  0  0  0  0  0  0  0  0  0
   14.3867   23.7144   57.5124 C   0  0  0  0  0  0  0  0  0  0  0  0
   15.3180   22.6056   57.9680 C   0  0  0  0  0  0  0  0  0  0  0  0
   14.7331   26.8487   59.3530 C   0  0  0  0  0  0  0  0  0  0  0  0
   14.4268   27.8059   60.4827 C   0  0  0  0  0  0  0  0  0  0  0  0
   13.2526   28.8084   60.2664 C   0  0  0  0  0  0  0  0  0  0  0  0
   11.9820   28.1310   59.7263 C   0  0  0  0  0  0  0  0  0  0  0  0
   12.9053   29.4188   61.6463 C   0  0  0  0  0  0  0  0  0  0  0  0
   13.6455   29.9538   59.3084 C   0  0  0  0  0  0  0  0  0  0  0  0
   14.7637   30.6595   59.8649 O   0  0  0  0  0  0  0  0  0  0  0  0
   15.2455   31.6815   59.1053 C   0  0  0  0  0  0  0  0  0  0  0  0
   16.5085   32.2548   59.7498 C   0  0  1  0  0  0  0  0  0  0  0  0
   16.8618   33.5211   59.0965 N   0  0  0  0  0  0  0  0  0  0  0  0
   18.1217   33.9643   59.5384 N   0  0  0  0  0  0  0  0  0  0  0  0
   19.2840   33.9952   58.7653 C   0  0  0  0  0  0  0  0  0  0  0  0
   19.2319   33.4136   57.3229 C   0  0  1  0  0  0  0  0  0  0  0  0
   19.7709   34.4094   56.3954 N   0  0  0  0  0  0  0  0  0  0  0  0
   19.0764   35.5882   56.1968 C   0  0  0  0  0  0  0  0  0  0  0  0
   19.6658   36.4901   55.0916 C   0  0  2  0  0  0  0  0  0  0  0  0
   19.4529   38.0003   55.3800 C   0  0  0  0  0  0  0  0  0  0  0  0
   20.0330   38.8651   54.2520 C   0  0  0  0  0  0  0  0  0  0  0  0
   20.1185   38.4099   56.7034 C   0  0  0  0  0  0  0  0  0  0  0  0
   19.0924   36.0509   53.7927 N   0  0  0  0  0  0  0  0  0  0  0  0
   19.8441   35.1544   53.0321 C   0  0  0  0  0  0  0  0  0  0  0  0
   19.4237   34.8707   51.5679 C   0  0  0  0  0  0  0  0  0  0  0  0
   19.4026   36.1843   50.7595 C   0  0  0  0  0  0  0  0  0  0  0  0
   19.1217   35.9079   49.2868 C   0  0  0  0  0  0  0  0  0  0  0  0
   20.1021   34.9591   48.7812 N   0  0  0  0  0  0  0  0  0  0  0  0
   21.2006   35.4563   48.0809 C   0  0  0  0  0  0  0  0  0  0  0  0
   22.3205   34.5752   47.8402 C   0  0  0  0  0  0  0  0  0  0  0  0
   23.2762   33.8623   47.6886 C   0  0  0  0  0  0  0  0  0  0  0  0
   24.4629   32.9878   47.5426 C   0  0  0  0  0  0  0  0  0  0  0  0
   25.5861   33.4092   48.4258 N   0  0  0  0  0  0  0  0  0  0  0  0
   25.2801   33.3579   49.8591 C   0  0  0  0  0  0  0  0  0  0  0  0
   26.1431   34.7261   48.1022 C   0  0  0  0  0  0  0  0  0  0  0  0
   24.0403   31.5341   47.8674 C   0  0  0  0  0  0  0  0  0  0  0  0
   24.9014   32.9966   46.0583 C   0  0  0  0  0  0  0  0  0  0  0  0
   21.2908   36.6140   47.6876 O   0  0  0  0  0  0  0  0  0  0  0  0
   20.0830   33.6652   49.4504 C   0  0  0  0  0  0  0  0  0  0  0  0
   20.3913   33.8518   50.9311 C   0  0  0  0  0  0  0  0  0  0  0  0
   20.8652   34.6426   53.5047 O   0  0  0  0  0  0  0  0  0  0  0  0
   17.6602   36.2756   53.5838 C   0  0  0  0  0  0  0  0  0  0  0  0
   18.0397   35.8581   56.7997 O   0  0  0  0  0  0  0  0  0  0  0  0
   20.0817   32.1262   57.3261 C   0  0  0  0  0  0  0  0  0  0  0  0
   19.5605   31.0034   56.4184 C   0  0  1  0  0  0  0  0  0  0  0  0
   18.3634   30.2369   57.0384 C   0  0  0  0  0  0  0  0  0  0  0  0
   17.9747   29.1423   56.1295 N   0  0  0  0  0  0  0  0  0  0  0  0
   17.6565   29.6503   54.7695 C   0  0  0  0  0  0  0  0  0  0  0  0
   18.8347   30.4865   54.2350 C   0  0  0  0  0  0  0  0  0  0  0  0
   19.2080   31.5467   55.1331 O   0  0  0  0  0  0  0  0  0  0  0  0
   20.3541   34.4158   59.2230 O   0  0  0  0  0  0  0  0  0  0  0  0
   18.1328   34.3568   60.9508 C   0  0  0  0  0  0  0  0  0  0  0  0
   17.6490   33.1831   61.8126 C   0  0  0  0  0  0  0  0  0  0  0  0
   16.3651   32.5468   61.2521 C   0  0  0  0  0  0  0  0  0  0  0  0
   14.8201   31.9952   58.0010 O   0  0  0  0  0  0  0  0  0  0  0  0
   15.5897   27.0812   58.2196 C   0  0  0  0  0  0  0  0  0  0  0  0
   15.5581   25.9300   57.4334 C   0  0  0  0  0  0  0  0  0  0  0  0
   16.2878   25.8303   56.2415 C   0  0  0  0  0  0  0  0  0  0  0  0
   17.0659   26.9238   55.8475 C   0  0  0  0  0  0  0  0  0  0  0  0
   17.1426   28.1111   56.5869 C   0  0  0  0  0  0  0  0  0  0  0  0
   16.4062   28.1635   57.7873 C   0  0  0  0  0  0  0  0  0  0  0  0
   18.1751   34.3061   51.5070 F   0  0  0  0  0  0  0  0  0  0  0  0
   15.7540   23.0637   63.4913 H   0  0  0  0  0  0  0  0  0  0  0  0
   15.8728   22.0753   62.0131 H   0  0  0  0  0  0  0  0  0  0  0  0
   17.2357   23.0674   62.5504 H   0  0  0  0  0  0  0  0  0  0  0  0
   16.1551   24.2064   60.6811 H   0  0  0  0  0  0  0  0  0  0  0  0
   17.2976   26.8865   62.6513 H   0  0  0  0  0  0  0  0  0  0  0  0
   17.9298   25.2342   62.6330 H   0  0  0  0  0  0  0  0  0  0  0  0
   17.4485   26.0368   61.1014 H   0  0  0  0  0  0  0  0  0  0  0  0
   11.5193   22.6668   62.7688 H   0  0  0  0  0  0  0  0  0  0  0  0
   10.3328   23.7087   60.8333 H   0  0  0  0  0  0  0  0  0  0  0  0
   11.6603   25.0466   59.2124 H   0  0  0  0  0  0  0  0  0  0  0  0
   13.3522   23.4893   57.7810 H   0  0  0  0  0  0  0  0  0  0  0  0
   14.4006   23.7958   56.4197 H   0  0  0  0  0  0  0  0  0  0  0  0
   15.2569   22.4514   59.0490 H   0  0  0  0  0  0  0  0  0  0  0  0
   15.0472   21.6635   57.4815 H   0  0  0  0  0  0  0  0  0  0  0  0
   16.3608   22.8310   57.7221 H   0  0  0  0  0  0  0  0  0  0  0  0
   14.1984   27.2113   61.3767 H   0  0  0  0  0  0  0  0  0  0  0  0
   15.3467   28.3480   60.7358 H   0  0  0  0  0  0  0  0  0  0  0  0
   11.6402   27.3427   60.4031 H   0  0  0  0  0  0  0  0  0  0  0  0
   11.1620   28.8522   59.6336 H   0  0  0  0  0  0  0  0  0  0  0  0
   12.1406   27.6957   58.7333 H   0  0  0  0  0  0  0  0  0  0  0  0
   13.7798   29.8849   62.1159 H   0  0  0  0  0  0  0  0  0  0  0  0
   12.1269   30.1846   61.5561 H   0  0  0  0  0  0  0  0  0  0  0  0
   12.5348   28.6499   62.3349 H   0  0  0  0  0  0  0  0  0  0  0  0
   13.9007   29.5642   58.3177 H   0  0  0  0  0  0  0  0  0  0  0  0
   12.8108   30.6572   59.1973 H   0  0  0  0  0  0  0  0  0  0  0  0
   17.3023   31.5147   59.5819 H   0  0  0  0  0  0  0  0  0  0  0  0
   16.7182   33.5296   58.0850 H   0  0  0  0  0  0  0  0  0  0  0  0
   18.2154   33.1982   56.9979 H   0  0  0  0  0  0  0  0  0  0  0  0
   20.2915   34.0746   55.5858 H   0  0  0  0  0  0  0  0  0  0  0  0
   20.7501   36.3219   55.0769 H   0  0  0  0  0  0  0  0  0  0  0  0
   18.3831   38.2219   55.4709 H   0  0  0  0  0  0  0  0  0  0  0  0
   19.9180   39.9310   54.4792 H   0  0  0  0  0  0  0  0  0  0  0  0
   21.1015   38.6659   54.1109 H   0  0  0  0  0  0  0  0  0  0  0  0
   19.5265   38.6796   53.2998 H   0  0  0  0  0  0  0  0  0  0  0  0
   19.6584   37.9011   57.5563 H   0  0  0  0  0  0  0  0  0  0  0  0
   21.1891   38.1716   56.7010 H   0  0  0  0  0  0  0  0  0  0  0  0
   20.0128   39.4881   56.8734 H   0  0  0  0  0  0  0  0  0  0  0  0
   18.6350   36.8720   51.1293 H   0  0  0  0  0  0  0  0  0  0  0  0
   20.3669   36.6976   50.8665 H   0  0  0  0  0  0  0  0  0  0  0  0
   18.1249   35.4720   49.1544 H   0  0  0  0  0  0  0  0  0  0  0  0
   19.1485   36.8437   48.7188 H   0  0  0  0  0  0  0  0  0  0  0  0
   26.1597   33.6440   50.4482 H   0  0  0  0  0  0  0  0  0  0  0  0
   24.4611   34.0283   50.1422 H   0  0  0  0  0  0  0  0  0  0  0  0
   25.0327   32.3440   50.1874 H   0  0  0  0  0  0  0  0  0  0  0  0
   27.0013   34.9458   48.7464 H   0  0  0  0  0  0  0  0  0  0  0  0
   26.5381   34.7618   47.0827 H   0  0  0  0  0  0  0  0  0  0  0  0
   25.4157   35.5360   48.2272 H   0  0  0  0  0  0  0  0  0  0  0  0
   23.5675   31.4459   48.8515 H   0  0  0  0  0  0  0  0  0  0  0  0
   23.3003   31.1675   47.1453 H   0  0  0  0  0  0  0  0  0  0  0  0
   24.8989   30.8536   47.8338 H   0  0  0  0  0  0  0  0  0  0  0  0
   25.8330   32.4347   45.9169 H   0  0  0  0  0  0  0  0  0  0  0  0
   24.1386   32.5352   45.4166 H   0  0  0  0  0  0  0  0  0  0  0  0
   25.0479   34.0122   45.6723 H   0  0  0  0  0  0  0  0  0  0  0  0
   19.0833   33.2346   49.3174 H   0  0  0  0  0  0  0  0  0  0  0  0
   20.7936   32.9684   49.0000 H   0  0  0  0  0  0  0  0  0  0  0  0
   21.4280   34.1941   51.0439 H   0  0  0  0  0  0  0  0  0  0  0  0
   20.3053   32.8852   51.4410 H   0  0  0  0  0  0  0  0  0  0  0  0
   17.0953   35.7781   54.3767 H   0  0  0  0  0  0  0  0  0  0  0  0
   17.4527   37.3486   53.6004 H   0  0  0  0  0  0  0  0  0  0  0  0
   17.2957   35.8813   52.6377 H   0  0  0  0  0  0  0  0  0  0  0  0
   21.1018   32.3771   57.0022 H   0  0  0  0  0  0  0  0  0  0  0  0
   20.1809   31.7210   58.3420 H   0  0  0  0  0  0  0  0  0  0  0  0
   20.3876   30.2933   56.2715 H   0  0  0  0  0  0  0  0  0  0  0  0
   18.6643   29.8391   58.0143 H   0  0  0  0  0  0  0  0  0  0  0  0
   17.5117   30.9134   57.1708 H   0  0  0  0  0  0  0  0  0  0  0  0
   17.4602   28.8446   54.0540 H   0  0  0  0  0  0  0  0  0  0  0  0
   16.7580   30.2783   54.8284 H   0  0  0  0  0  0  0  0  0  0  0  0
   19.7116   29.8511   54.0571 H   0  0  0  0  0  0  0  0  0  0  0  0
   18.5598   30.9447   53.2801 H   0  0  0  0  0  0  0  0  0  0  0  0
   19.1325   34.6664   61.2675 H   0  0  0  0  0  0  0  0  0  0  0  0
   17.4628   35.2183   61.0614 H   0  0  0  0  0  0  0  0  0  0  0  0
   18.4333   32.4160   61.8373 H   0  0  0  0  0  0  0  0  0  0  0  0
   17.4874   33.5138   62.8436 H   0  0  0  0  0  0  0  0  0  0  0  0
   15.5156   33.2216   61.4239 H   0  0  0  0  0  0  0  0  0  0  0  0
   16.1483   31.6259   61.8068 H   0  0  0  0  0  0  0  0  0  0  0  0
   16.2804   24.9283   55.6385 H   0  0  0  0  0  0  0  0  0  0  0  0
   17.6640   26.8147   54.9451 H   0  0  0  0  0  0  0  0  0  0  0  0
   16.4402   29.0468   58.4100 H   0  0  0  0  0  0  0  0  0  0  0  0
  1  2  1  0
  2  3  1  0
  2  5  1  0
  3  4  1  0
  5  6  2  0
  5 10  1  0
  6  7  1  0
  7  8  2  0
  8  9  1  0
  9 10  2  0
 10 11  1  0
 11 12  1  0
 11 15  2  0
 12 13  1  0
 12 68  1  0
 13 14  1  0
 15 16  1  0
 15 67  1  0
 16 17  1  0
 17 18  1  0
 17 19  1  0
 17 20  1  0
 20 21  1  0
 21 22  1  0
 22 23  1  0
 22 66  2  0
 23 24  1  0
 23 65  1  0
 24 25  1  0
 25 26  1  0
 25 63  1  0
 26 27  1  0
 26 62  2  0
 27 28  1  0
 27 55  1  0
 28 29  1  0
 29 30  1  0
 29 54  2  0
 30 31  1  0
 30 34  1  0
 31 32  1  0
 31 33  1  0
 34 35  1  0
 34 53  1  0
 35 36  1  0
 35 52  2  0
 36 37  1  0
 36 51  1  0
 36 73  1  0
 37 38  1  0
 38 39  1  0
 39 40  1  0
 39 50  1  0
 40 41  1  0
 40 49  2  0
 42 43  1  0
 43 44  1  0
 43 47  1  0
 43 48  1  0
 44 45  1  0
 44 46  1  0
 50 51  1  0
 55 56  1  0
 56 57  1  0
 56 61  1  0
 57 58  1  0
 58 59  1  0
 58 71  1  0
 59 60  1  0
 60 61  1  0
 63 64  1  0
 64 65  1  0
 67 68  2  0
 67 72  1  0
 68 69  1  0
 69 70  2  0
 70 71  1  0
 71 72  2  0
  1 74  1  0
  1 75  1  0
  1 76  1  0
  2 77  1  6
  4 78  1  0
  4 79  1  0
  4 80  1  0
  7 81  1  0
  8 82  1  0
  9 83  1  0
 13 84  1  0
 13 85  1  0
 14 86  1  0
 14 87  1  0
 14 88  1  0
 16 89  1  0
 16 90  1  0
 18 91  1  0
 18 92  1  0
 18 93  1  0
 19 94  1  0
 19 95  1  0
 19 96  1  0
 20 97  1  0
 20 98  1  0
 23 99  1  1
 24100  1  0
 27101  1  6
 28102  1  0
 30103  1  6
 31104  1  0
 32105  1  0
 32106  1  0
 32107  1  0
 33108  1  0
 33109  1  0
 33110  1  0
 37111  1  0
 37112  1  0
 38113  1  0
 38114  1  0
 45115  1  0
 45116  1  0
 45117  1  0
 46118  1  0
 46119  1  0
 46120  1  0
 47121  1  0
 47122  1  0
 47123  1  0
 48124  1  0
 48125  1  0
 48126  1  0
 50127  1  0
 50128  1  0
 51129  1  0
 51130  1  0
 53131  1  0
 53132  1  0
 53133  1  0
 55134  1  0
 55135  1  0
 56136  1  6
 57137  1  0
 57138  1  0
 59139  1  0
 59140  1  0
 60141  1  0
 60142  1  0
 63143  1  0
 63144  1  0
 64145  1  0
 64146  1  0
 65147  1  0
 65148  1  0
 69149  1  0
 70150  1  0
 72151  1  0
 41 42  3  0
M  END
$$$$
