obj14
     RDKit          3D

151157  0  0  0  0  0  0  0  0999 V2000
   15.0744   22.6034   61.7576 C   0  0  0  0  0  0  0  0  0  0  0  0
   14.6281   23.9151   61.1067 C   0  0  2  0  0  0  0  0  0  0  0  0
   15.0633   25.0178   61.9178 O   0  0  0  0  0  0  0  0  0  0  0  0
   16.3934   25.4245   61.6291 C   0  0  0  0  0  0  0  0  0  0  0  0
   13.1122   23.9899   60.9302 C   0  0  0  0  0  0  0  0  0  0  0  0
   12.3512   23.2346   61.7766 N   0  0  0  0  0  0  0  0  0  0  0  0
   11.0098   23.2746   61.6373 C   0  0  0  0  0  0  0  0  0  0  0  0
   10.3612   24.0235   60.6758 C   0  0  0  0  0  0  0  0  0  0  0  0
   11.1355   24.7895   59.8134 C   0  0  0  0  0  0  0  0  0  0  0  0
   12.5309   24.7978   59.9359 C   0  0  0  0  0  0  0  0  0  0  0  0
   13.3178   25.6196   59.0080 C   0  0  0  0  0  0  0  0  0  0  0  0
   13.6746   25.1956   57.7416 N   0  0  0  0  0  0  0  0  0  0  0  0
   13.2996   23.9254   57.1298 C   0  0  0  0  0  0  0  0  0  0  0  0
   12.1197   24.0655   56.1833 C   0  0  0  0  0  0  0  0  0  0  0  0
   13.8641   26.8904   59.1964 C   0  0  0  0  0  0  0  0  0  0  0  0
   13.7284   27.7446   60.4360 C   0  0  0  0  0  0  0  0  0  0  0  0
   12.6230   28.8410   60.4302 C   0  0  0  0  0  0  0  0  0  0  0  0
   11.2527   28.2886   60.0055 C   0  0  0  0  0  0  0  0  0  0  0  0
   12.4856   29.3661   61.8793 C   0  0  0  0  0  0  0  0  0  0  0  0
   12.9781   30.0252   59.5050 C   0  0  0  0  0  0  0  0  0  0  0  0
   14.1661   30.6800   59.9772 O   0  0  0  0  0  0  0  0  0  0  0  0
   14.5589   31.7485   59.2281 C   0  0  0  0  0  0  0  0  0  0  0  0
   15.8251   32.3718   59.8243 C   0  0  1  0  0  0  0  0  0  0  0  0
   16.2369   33.5206   58.9978 N   0  0  0  0  0  0  0  0  0  0  0  0
   17.4488   34.0771   59.4614 N   0  0  0  0  0  0  0  0  0  0  0  0
   18.5807   34.3077   58.6659 C   0  0  0  0  0  0  0  0  0  0  0  0
   18.6474   33.5910   57.2883 C   0  0  1  0  0  0  0  0  0  0  0  0
   19.5689   34.2943   56.3976 N   0  0  0  0  0  0  0  0  0  0  0  0
   19.2510   35.5439   55.8978 C   0  0  0  0  0  0  0  0  0  0  0  0
   20.2944   36.0655   54.8810 C   0  0  2  0  0  0  0  0  0  0  0  0
   20.5640   37.5849   55.0558 C   0  0  0  0  0  0  0  0  0  0  0  0
   21.5583   38.1029   54.0084 C   0  0  0  0  0  0  0  0  0  0  0  0
   21.1207   37.8895   56.4553 C   0  0  0  0  0  0  0  0  0  0  0  0
   19.8485   35.6551   53.5166 N   0  0  0  0  0  0  0  0  0  0  0  0
   20.1555   34.3395   53.1457 C   0  0  0  0  0  0  0  0  0  0  0  0
   19.8671   33.7929   51.7196 C   0  0  0  0  0  0  0  0  0  0  0  0
   20.7626   34.5281   50.7102 C   0  0  0  0  0  0  0  0  0  0  0  0
   20.5376   33.9656   49.3122 C   0  0  0  0  0  0  0  0  0  0  0  0
   19.1193   34.0473   48.9911 N   0  0  0  0  0  0  0  0  0  0  0  0
   18.5558   35.1284   48.3154 C   0  0  0  0  0  0  0  0  0  0  0  0
   19.4446   36.0897   47.6967 C   0  0  0  0  0  0  0  0  0  0  0  0
   20.1956   36.8966   47.2121 C   0  0  0  0  0  0  0  0  0  0  0  0
   21.1147   37.9025   46.6136 C   0  0  0  0  0  0  0  0  0  0  0  0
   22.1205   38.2962   47.6377 N   0  0  0  0  0  0  0  0  0  0  0  0
   23.0689   37.2349   47.9915 C   0  0  0  0  0  0  0  0  0  0  0  0
   22.8709   39.5145   47.3207 C   0  0  0  0  0  0  0  0  0  0  0  0
   21.7352   37.2967   45.3361 C   0  0  0  0  0  0  0  0  0  0  0  0
   20.2288   39.1004   46.1942 C   0  0  0  0  0  0  0  0  0  0  0  0
   17.3492   35.3296   48.2407 O   0  0  0  0  0  0  0  0  0  0  0  0
   18.2695   33.2361   49.8530 C   0  0  0  0  0  0  0  0  0  0  0  0
   18.3915   33.7313   51.2949 C   0  0  0  0  0  0  0  0  0  0  0  0
   20.7548   33.6063   53.9476 O   0  0  0  0  0  0  0  0  0  0  0  0
   18.7262   36.3864   52.9358 C   0  0  0  0  0  0  0  0  0  0  0  0
   18.2132   36.1400   56.1676 O   0  0  0  0  0  0  0  0  0  0  0  0
   19.1561   32.1588   57.5430 C   0  0  0  0  0  0  0  0  0  0  0  0
   18.7026   31.1010   56.5237 C   0  0  1  0  0  0  0  0  0  0  0  0
   17.4842   30.3006   57.0458 C   0  0  0  0  0  0  0  0  0  0  0  0
   17.0874   29.2852   56.0521 N   0  0  0  0  0  0  0  0  0  0  0  0
   16.8386   29.8907   54.7220 C   0  0  0  0  0  0  0  0  0  0  0  0
   18.0665   30.7100   54.2878 C   0  0  0  0  0  0  0  0  0  0  0  0
   18.4042   31.7130   55.2591 O   0  0  0  0  0  0  0  0  0  0  0  0
   19.5455   34.9515   59.0946 O   0  0  0  0  0  0  0  0  0  0  0  0
   17.3540   34.6536   60.8057 C   0  0  0  0  0  0  0  0  0  0  0  0
   16.8447   33.5990   61.7919 C   0  0  0  0  0  0  0  0  0  0  0  0
   15.6015   32.8732   61.2581 C   0  0  0  0  0  0  0  0  0  0  0  0
   14.0242   32.1032   58.1848 O   0  0  0  0  0  0  0  0  0  0  0  0
   14.6641   27.1773   58.0369 C   0  0  0  0  0  0  0  0  0  0  0  0
   14.5096   26.1190   57.1449 C   0  0  0  0  0  0  0  0  0  0  0  0
   15.1577   26.1002   55.9038 C   0  0  0  0  0  0  0  0  0  0  0  0
   15.9961   27.1729   55.5788 C   0  0  0  0  0  0  0  0  0  0  0  0
   16.1989   28.2676   56.4298 C   0  0  0  0  0  0  0  0  0  0  0  0
   15.5288   28.2414   57.6676 C   0  0  0  0  0  0  0  0  0  0  0  0
   20.2863   32.4705   51.6717 F   0  0  0  0  0  0  0  0  0  0  0  0
   14.7413   22.5403   62.8001 H   0  0  0  0  0  0  0  0  0  0  0  0
   14.6875   21.7340   61.2135 H   0  0  0  0  0  0  0  0  0  0  0  0
   16.1663   22.5276   61.7778 H   0  0  0  0  0  0  0  0  0  0  0  0
   15.0958   23.9617   60.1150 H   0  0  0  0  0  0  0  0  0  0  0  0
   16.6262   26.2942   62.2501 H   0  0  0  0  0  0  0  0  0  0  0  0
   17.1053   24.6304   61.8674 H   0  0  0  0  0  0  0  0  0  0  0  0
   16.4929   25.7165   60.5793 H   0  0  0  0  0  0  0  0  0  0  0  0
   10.4526   22.6636   62.3422 H   0  0  0  0  0  0  0  0  0  0  0  0
    9.2796   24.0186   60.6030 H   0  0  0  0  0  0  0  0  0  0  0  0
   10.6490   25.3933   59.0520 H   0  0  0  0  0  0  0  0  0  0  0  0
   14.1761   23.5373   56.6001 H   0  0  0  0  0  0  0  0  0  0  0  0
   13.0731   23.2040   57.9201 H   0  0  0  0  0  0  0  0  0  0  0  0
   11.2406   24.4659   56.6970 H   0  0  0  0  0  0  0  0  0  0  0  0
   12.3531   24.7395   55.3533 H   0  0  0  0  0  0  0  0  0  0  0  0
   11.8544   23.0911   55.7632 H   0  0  0  0  0  0  0  0  0  0  0  0
   13.5393   27.0773   61.2866 H   0  0  0  0  0  0  0  0  0  0  0  0
   14.7031   28.2020   60.6517 H   0  0  0  0  0  0  0  0  0  0  0  0
   10.9310   27.4809   60.6692 H   0  0  0  0  0  0  0  0  0  0  0  0
   10.4817   29.0662   60.0534 H   0  0  0  0  0  0  0  0  0  0  0  0
   11.2640   27.9136   58.9771 H   0  0  0  0  0  0  0  0  0  0  0  0
   13.4290   29.7751   62.2536 H   0  0  0  0  0  0  0  0  0  0  0  0
   11.7296   30.1569   61.9441 H   0  0  0  0  0  0  0  0  0  0  0  0
   12.1823   28.5654   62.5639 H   0  0  0  0  0  0  0  0  0  0  0  0
   13.1222   29.6860   58.4731 H   0  0  0  0  0  0  0  0  0  0  0  0
   12.1597   30.7579   59.5100 H   0  0  0  0  0  0  0  0  0  0  0  0
   16.6086   31.6043   59.7963 H   0  0  0  0  0  0  0  0  0  0  0  0
   16.1988   33.3079   58.0025 H   0  0  0  0  0  0  0  0  0  0  0  0
   17.6689   33.6071   56.8050 H   0  0  0  0  0  0  0  0  0  0  0  0
   20.0960   33.7187   55.7392 H   0  0  0  0  0  0  0  0  0  0  0  0
   21.2464   35.5596   55.0877 H   0  0  0  0  0  0  0  0  0  0  0  0
   19.6318   38.1535   54.9601 H   0  0  0  0  0  0  0  0  0  0  0  0
   21.6670   39.1888   54.0891 H   0  0  0  0  0  0  0  0  0  0  0  0
   22.5486   37.6566   54.1515 H   0  0  0  0  0  0  0  0  0  0  0  0
   21.2309   37.8828   52.9897 H   0  0  0  0  0  0  0  0  0  0  0  0
   20.4027   37.6214   57.2391 H   0  0  0  0  0  0  0  0  0  0  0  0
   22.0501   37.3383   56.6419 H   0  0  0  0  0  0  0  0  0  0  0  0
   21.3360   38.9590   56.5595 H   0  0  0  0  0  0  0  0  0  0  0  0
   20.5633   35.6044   50.7152 H   0  0  0  0  0  0  0  0  0  0  0  0
   21.8173   34.3963   50.9811 H   0  0  0  0  0  0  0  0  0  0  0  0
   21.1479   34.4984   48.5800 H   0  0  0  0  0  0  0  0  0  0  0  0
   20.8357   32.9107   49.2610 H   0  0  0  0  0  0  0  0  0  0  0  0
   23.6551   37.5309   48.8704 H   0  0  0  0  0  0  0  0  0  0  0  0
   22.5622   36.3076   48.2722 H   0  0  0  0  0  0  0  0  0  0  0  0
   23.7737   37.0139   47.1820 H   0  0  0  0  0  0  0  0  0  0  0  0
   23.5833   39.7473   48.1230 H   0  0  0  0  0  0  0  0  0  0  0  0
   23.4386   39.4252   46.3882 H   0  0  0  0  0  0  0  0  0  0  0  0
   22.2162   40.3890   47.2552 H   0  0  0  0  0  0  0  0  0  0  0  0
   22.2618   36.3557   45.5372 H   0  0  0  0  0  0  0  0  0  0  0  0
   20.9575   37.0637   44.5969 H   0  0  0  0  0  0  0  0  0  0  0  0
   22.4388   37.9877   44.8586 H   0  0  0  0  0  0  0  0  0  0  0  0
   19.8039   39.6101   47.0669 H   0  0  0  0  0  0  0  0  0  0  0  0
   20.7845   39.8360   45.6031 H   0  0  0  0  0  0  0  0  0  0  0  0
   19.3840   38.7708   45.5764 H   0  0  0  0  0  0  0  0  0  0  0  0
   17.2253   33.2815   49.5262 H   0  0  0  0  0  0  0  0  0  0  0  0
   18.5949   32.1915   49.7698 H   0  0  0  0  0  0  0  0  0  0  0  0
   17.8373   33.0594   51.9592 H   0  0  0  0  0  0  0  0  0  0  0  0
   17.8952   34.6989   51.3451 H   0  0  0  0  0  0  0  0  0  0  0  0
   18.6543   37.4053   53.3187 H   0  0  0  0  0  0  0  0  0  0  0  0
   18.8575   36.4644   51.8542 H   0  0  0  0  0  0  0  0  0  0  0  0
   17.7976   35.8584   53.1725 H   0  0  0  0  0  0  0  0  0  0  0  0
   20.2557   32.1788   57.5309 H   0  0  0  0  0  0  0  0  0  0  0  0
   18.9010   31.8150   58.5528 H   0  0  0  0  0  0  0  0  0  0  0  0
   19.5365   30.4015   56.3753 H   0  0  0  0  0  0  0  0  0  0  0  0
   17.7639   29.8238   57.9927 H   0  0  0  0  0  0  0  0  0  0  0  0
   16.6432   30.9815   57.2189 H   0  0  0  0  0  0  0  0  0  0  0  0
   16.6394   29.1470   53.9444 H   0  0  0  0  0  0  0  0  0  0  0  0
   15.9647   30.5510   54.7924 H   0  0  0  0  0  0  0  0  0  0  0  0
   18.9360   30.0621   54.1258 H   0  0  0  0  0  0  0  0  0  0  0  0
   17.8521   31.2187   53.3446 H   0  0  0  0  0  0  0  0  0  0  0  0
   18.3230   35.0355   61.1394 H   0  0  0  0  0  0  0  0  0  0  0  0
   16.6619   35.5021   60.7548 H   0  0  0  0  0  0  0  0  0  0  0  0
   17.6352   32.8574   61.9610 H   0  0  0  0  0  0  0  0  0  0  0  0
   16.6245   34.0624   62.7595 H   0  0  0  0  0  0  0  0  0  0  0  0
   14.7401   33.5533   61.2887 H   0  0  0  0  0  0  0  0  0  0  0  0
   15.3584   32.0352   61.9235 H   0  0  0  0  0  0  0  0  0  0  0  0
   15.0461   25.2723   55.2125 H   0  0  0  0  0  0  0  0  0  0  0  0
   16.5361   27.1133   54.6371 H   0  0  0  0  0  0  0  0  0  0  0  0
   15.6549   29.0443   58.3803 H   0  0  0  0  0  0  0  0  0  0  0  0
  1  2  1  0
  2  3  1  0
  2  5  1  0
  3  4  1  0
  5  6  2  0
  5 10  1  0
  6  7  1  0
  7  8  2  0
  8  9  1  0
  9 10  2  0
 10 11  1  0
 11 12  1  0
 11 15  2  0
 12 13  1  0
 12 68  1  0
 13 14  1  0
 15 16  1  0
 15 67  1  0
 16 17  1  0
 17 18  1  0
 17 19  1  0
 17 20  1  0
 20 21  1  0
 21 22  1  0
 22 23  1  0
 22 66  2  0
 23 24  1  0
 23 65  1  0
 24 25  1  0
 25 26  1  0
 25 63  1  0
 26 27  1  0
 26 62  2  0
 27 28  1  0
 27 55  1  0
 28 29  1  0
 29 30  1  0
 29 54  2  0
 30 31  1  0
 30 34  1  0
 31 32  1  0
 31 33  1  0
 34 35  1  0
 34 53  1  0
 35 36  1  0
 35 52  2  0
 36 37  1  0
 36 51  1  0
 36 73  1  0
 37 38  1  0
 38 39  1  0
 39 40  1  0
 39 50  1  0
 40 41  1  0
 40 49  2  0
 42 43  1  0
 43 44  1  0
 43 47  1  0
 43 48  1  0
 44 45  1  0
 44 46  1  0
 50 51  1  0
 55 56  1  0
 56 57  1  0
 56 61  1  0
 57 58  1  0
 58 59  1  0
 58 71  1  0
 59 60  1  0
 60 61  1  0
 63 64  1  0
 64 65  1  0
 67 68  2  0
 67 72  1  0
 68 69  1  0
 69 70  2  0
 70 71  1  0
 71 72  2  0
  1 74  1  0
  1 75  1  0
  1 76  1  0
  2 77  1  6
  4 78  1  0
  4 79  1  0
  4 80  1  0
  7 81  1  0
  8 82  1  0
  9 83  1  0
 13 84  1  0
 13 85  1  0
 14 86  1  0
 14 87  1  0
 14 88  1  0
 16 89  1  0
 16 90  1  0
 18 91  1  0
 18 92  1  0
 18 93  1  0
 19 94  1  0
 19 95  1  0
 19 96  1  0
 20 97  1  0
 20 98  1  0
 23 99  1  1
 24100  1  0
 27101  1  6
 28102  1  0
 30103  1  1
 31104  1  0
 32105  1  0
 32106  1  0
 32107  1  0
 33108  1  0
 33109  1  0
 33110  1  0
 37111  1  0
 37112  1  0
 38113  1  0
 38114  1  0
 45115  1  0
 45116  1  0
 45117  1  0
 46118  1  0
 46119  1  0
 46120  1  0
 47121  1  0
 47122  1  0
 47123  1  0
 48124  1  0
 48125  1  0
 48126  1  0
 50127  1  0
 50128  1  0
 51129  1  0
 51130  1  0
 53131  1  0
 53132  1  0
 53133  1  0
 55134  1  0
 55135  1  0
 56136  1  6
 57137  1  0
 57138  1  0
 59139  1  0
 59140  1  0
 60141  1  0
 60142  1  0
 63143  1  0
 63144  1  0
 64145  1  0
 64146  1  0
 65147  1  0
 65148  1  0
 69149  1  0
 70150  1  0
 72151  1  0
 41 42  3  0
M  END
$$$$
