 xtb: 6.7.1 (edcfbbe)
          08072516533D

151157  0     0  0            999 V2000
    7.2490   28.9247   59.8785 C   0  0  0  0  0  0  0  0  0  0  0  0
    8.2743   27.9455   59.3068 C   0  0  0  0  0  0  0  0  0  0  0  0
    7.6769   26.9612   58.4714 O   0  0  0  0  0  0  0  0  0  0  0  0
    7.2390   27.4370   57.2254 C   0  0  0  0  0  0  0  0  0  0  0  0
    8.9643   27.1877   60.4253 C   0  0  0  0  0  0  0  0  0  0  0  0
    8.1833   26.7995   61.4198 N   0  0  0  0  0  0  0  0  0  0  0  0
    8.6969   26.1243   62.4292 C   0  0  0  0  0  0  0  0  0  0  0  0
   10.0415   25.7973   62.5129 C   0  0  0  0  0  0  0  0  0  0  0  0
   10.8691   26.2028   61.4823 C   0  0  0  0  0  0  0  0  0  0  0  0
   10.3400   26.9122   60.4044 C   0  0  0  0  0  0  0  0  0  0  0  0
   11.2411   27.3558   59.3356 C   0  0  0  0  0  0  0  0  0  0  0  0
   11.1438   26.8666   58.0534 N   0  0  0  0  0  0  0  0  0  0  0  0
   10.3924   25.7019   57.6601 C   0  0  0  0  0  0  0  0  0  0  0  0
   11.2005   24.4240   57.8818 C   0  0  0  0  0  0  0  0  0  0  0  0
   12.2774   28.2601   59.4267 C   0  0  0  0  0  0  0  0  0  0  0  0
   12.7109   28.9844   60.6624 C   0  0  0  0  0  0  0  0  0  0  0  0
   12.1231   30.4009   60.8665 C   0  0  0  0  0  0  0  0  0  0  0  0
   12.3928   30.8397   62.3083 C   0  0  0  0  0  0  0  0  0  0  0  0
   10.6186   30.4107   60.6057 C   0  0  0  0  0  0  0  0  0  0  0  0
   12.7817   31.3985   59.9094 C   0  0  0  0  0  0  0  0  0  0  0  0
   14.1724   31.5085   60.2267 O   0  0  0  0  0  0  0  0  0  0  0  0
   14.9320   32.1742   59.3709 C   0  0  0  0  0  0  0  0  0  0  0  0
   16.3999   32.1424   59.7688 C   0  0  0  0  0  0  0  0  0  0  0  0
   17.0817   33.3462   59.3230 N   0  0  0  0  0  0  0  0  0  0  0  0
   18.4614   33.1280   59.3570 N   0  0  0  0  0  0  0  0  0  0  0  0
   19.1865   32.5311   58.3831 C   0  0  0  0  0  0  0  0  0  0  0  0
   18.4880   32.3614   57.0187 C   0  0  0  0  0  0  0  0  0  0  0  0
   18.9342   33.4203   56.1409 N   0  0  0  0  0  0  0  0  0  0  0  0
   18.2637   34.5814   56.0558 C   0  0  0  0  0  0  0  0  0  0  0  0
   18.8273   35.5084   54.9750 C   0  0  0  0  0  0  0  0  0  0  0  0
   18.2497   36.9284   55.0374 C   0  0  0  0  0  0  0  0  0  0  0  0
   18.6967   37.7349   53.8212 C   0  0  0  0  0  0  0  0  0  0  0  0
   18.7169   37.6002   56.3269 C   0  0  0  0  0  0  0  0  0  0  0  0
   18.5725   34.8362   53.7026 N   0  0  0  0  0  0  0  0  0  0  0  0
   19.6347   34.3631   53.0300 C   0  0  0  0  0  0  0  0  0  0  0  0
   19.4427   33.5353   51.7519 C   0  0  0  0  0  0  0  0  0  0  0  0
   18.2238   33.7782   51.1268 F   0  0  0  0  0  0  0  0  0  0  0  0
   19.5205   32.0549   52.1474 C   0  0  0  0  0  0  0  0  0  0  0  0
   19.4499   31.1740   50.9010 C   0  0  0  0  0  0  0  0  0  0  0  0
   20.4907   31.5436   49.9720 N   0  0  0  0  0  0  0  0  0  0  0  0
   21.4631   30.6564   49.6506 C   0  0  0  0  0  0  0  0  0  0  0  0
   22.4580   31.1459   48.7261 C   0  0  0  0  0  0  0  0  0  0  0  0
   23.3551   31.3645   47.9542 C   0  0  0  0  0  0  0  0  0  0  0  0
   24.4215   31.7481   47.0326 C   0  0  0  0  0  0  0  0  0  0  0  0
   24.6300   30.6358   46.1002 N   0  0  0  0  0  0  0  0  0  0  0  0
   24.8779   29.3604   46.7413 C   0  0  0  0  0  0  0  0  0  0  0  0
   25.5991   30.8738   45.0543 C   0  0  0  0  0  0  0  0  0  0  0  0
   23.9290   32.9905   46.2704 C   0  0  0  0  0  0  0  0  0  0  0  0
   25.6573   32.1169   47.8811 C   0  0  0  0  0  0  0  0  0  0  0  0
   21.4950   29.5157   50.0767 O   0  0  0  0  0  0  0  0  0  0  0  0
   20.4469   32.9160   49.5377 C   0  0  0  0  0  0  0  0  0  0  0  0
   20.5407   33.8643   50.7361 C   0  0  0  0  0  0  0  0  0  0  0  0
   20.7811   34.5123   53.4327 O   0  0  0  0  0  0  0  0  0  0  0  0
   17.1831   34.5656   53.3942 C   0  0  0  0  0  0  0  0  0  0  0  0
   17.2642   34.8201   56.7086 O   0  0  0  0  0  0  0  0  0  0  0  0
   18.7837   30.9743   56.4401 C   0  0  0  0  0  0  0  0  0  0  0  0
   17.6267   30.3726   55.6375 C   0  0  0  0  0  0  0  0  0  0  0  0
   16.3685   30.1166   56.4843 C   0  0  0  0  0  0  0  0  0  0  0  0
   15.3683   29.4987   55.6396 N   0  0  0  0  0  0  0  0  0  0  0  0
   15.0478   30.3891   54.5373 C   0  0  0  0  0  0  0  0  0  0  0  0
   16.3203   30.6438   53.7347 C   0  0  0  0  0  0  0  0  0  0  0  0
   17.3275   31.2180   54.5403 O   0  0  0  0  0  0  0  0  0  0  0  0
   20.3517   32.2161   58.5395 O   0  0  0  0  0  0  0  0  0  0  0  0
   18.9102   33.0956   60.7375 C   0  0  0  0  0  0  0  0  0  0  0  0
   18.2054   31.9453   61.4672 C   0  0  0  0  0  0  0  0  0  0  0  0
   16.6879   32.0226   61.2682 C   0  0  0  0  0  0  0  0  0  0  0  0
   14.5378   32.6811   58.3523 O   0  0  0  0  0  0  0  0  0  0  0  0
   12.8678   28.3261   58.1279 C   0  0  0  0  0  0  0  0  0  0  0  0
   12.1382   27.4357   57.3055 C   0  0  0  0  0  0  0  0  0  0  0  0
   12.4706   27.2565   55.9674 C   0  0  0  0  0  0  0  0  0  0  0  0
   13.5279   27.9725   55.4628 C   0  0  0  0  0  0  0  0  0  0  0  0
   14.2746   28.8626   56.2592 C   0  0  0  0  0  0  0  0  0  0  0  0
   13.9497   29.0314   57.5933 C   0  0  0  0  0  0  0  0  0  0  0  0
    7.7379   29.6049   60.5693 H   0  0  0  0  0  0  0  0  0  0  0  0
    6.7885   29.5071   59.0848 H   0  0  0  0  0  0  0  0  0  0  0  0
    6.4867   28.3645   60.4111 H   0  0  0  0  0  0  0  0  0  0  0  0
    9.0294   28.4950   58.7196 H   0  0  0  0  0  0  0  0  0  0  0  0
    6.3716   28.0982   57.3170 H   0  0  0  0  0  0  0  0  0  0  0  0
    8.0417   27.9734   56.7025 H   0  0  0  0  0  0  0  0  0  0  0  0
    6.9549   26.5584   56.6484 H   0  0  0  0  0  0  0  0  0  0  0  0
    7.9968   25.8389   63.2033 H   0  0  0  0  0  0  0  0  0  0  0  0
   10.4274   25.2425   63.3539 H   0  0  0  0  0  0  0  0  0  0  0  0
   11.9240   25.9657   61.4942 H   0  0  0  0  0  0  0  0  0  0  0  0
    9.4663   25.6636   58.2367 H   0  0  0  0  0  0  0  0  0  0  0  0
   10.1345   25.8018   56.6026 H   0  0  0  0  0  0  0  0  0  0  0  0
   11.4287   24.3023   58.9385 H   0  0  0  0  0  0  0  0  0  0  0  0
   10.6313   23.5608   57.5481 H   0  0  0  0  0  0  0  0  0  0  0  0
   12.1360   24.4655   57.3278 H   0  0  0  0  0  0  0  0  0  0  0  0
   12.4241   28.3868   61.5301 H   0  0  0  0  0  0  0  0  0  0  0  0
   13.7997   29.0712   60.6581 H   0  0  0  0  0  0  0  0  0  0  0  0
   11.8746   30.1846   63.0045 H   0  0  0  0  0  0  0  0  0  0  0  0
   13.4574   30.8071   62.5232 H   0  0  0  0  0  0  0  0  0  0  0  0
   12.0418   31.8567   62.4676 H   0  0  0  0  0  0  0  0  0  0  0  0
   10.1974   31.3846   60.8446 H   0  0  0  0  0  0  0  0  0  0  0  0
   10.4102   30.1926   59.5618 H   0  0  0  0  0  0  0  0  0  0  0  0
   10.1304   29.6597   61.2214 H   0  0  0  0  0  0  0  0  0  0  0  0
   12.3250   32.3893   60.0084 H   0  0  0  0  0  0  0  0  0  0  0  0
   12.6746   31.0760   58.8689 H   0  0  0  0  0  0  0  0  0  0  0  0
   16.8087   31.2397   59.2658 H   0  0  0  0  0  0  0  0  0  0  0  0
   16.7585   33.7429   58.4418 H   0  0  0  0  0  0  0  0  0  0  0  0
   17.4098   32.5013   57.1145 H   0  0  0  0  0  0  0  0  0  0  0  0
   19.8104   33.2998   55.6559 H   0  0  0  0  0  0  0  0  0  0  0  0
   19.9168   35.5652   55.0779 H   0  0  0  0  0  0  0  0  0  0  0  0
   17.1575   36.8714   55.0574 H   0  0  0  0  0  0  0  0  0  0  0  0
   19.7831   37.7636   53.7680 H   0  0  0  0  0  0  0  0  0  0  0  0
   18.3207   37.2992   52.8990 H   0  0  0  0  0  0  0  0  0  0  0  0
   18.3272   38.7549   53.8930 H   0  0  0  0  0  0  0  0  0  0  0  0
   18.3742   37.0395   57.1919 H   0  0  0  0  0  0  0  0  0  0  0  0
   19.8030   37.6606   56.3544 H   0  0  0  0  0  0  0  0  0  0  0  0
   18.3138   38.6079   56.3898 H   0  0  0  0  0  0  0  0  0  0  0  0
   20.4740   31.9012   52.6553 H   0  0  0  0  0  0  0  0  0  0  0  0
   18.7144   31.8041   52.8375 H   0  0  0  0  0  0  0  0  0  0  0  0
   18.4740   31.2969   50.4162 H   0  0  0  0  0  0  0  0  0  0  0  0
   19.5945   30.1242   51.1630 H   0  0  0  0  0  0  0  0  0  0  0  0
   24.1594   29.2038   47.5427 H   0  0  0  0  0  0  0  0  0  0  0  0
   24.7436   28.5737   45.9982 H   0  0  0  0  0  0  0  0  0  0  0  0
   25.8956   29.2721   47.1516 H   0  0  0  0  0  0  0  0  0  0  0  0
   26.6360   30.9319   45.4211 H   0  0  0  0  0  0  0  0  0  0  0  0
   25.5405   30.0431   44.3505 H   0  0  0  0  0  0  0  0  0  0  0  0
   25.3623   31.7868   44.5147 H   0  0  0  0  0  0  0  0  0  0  0  0
   23.5059   33.7058   46.9724 H   0  0  0  0  0  0  0  0  0  0  0  0
   24.7457   33.4770   45.7439 H   0  0  0  0  0  0  0  0  0  0  0  0
   23.1610   32.7022   45.5573 H   0  0  0  0  0  0  0  0  0  0  0  0
   25.9787   31.2668   48.4777 H   0  0  0  0  0  0  0  0  0  0  0  0
   26.4748   32.4311   47.2365 H   0  0  0  0  0  0  0  0  0  0  0  0
   25.4104   32.9344   48.5539 H   0  0  0  0  0  0  0  0  0  0  0  0
   21.2691   33.0997   48.8441 H   0  0  0  0  0  0  0  0  0  0  0  0
   19.4974   33.0920   49.0160 H   0  0  0  0  0  0  0  0  0  0  0  0
   20.4221   34.8955   50.3995 H   0  0  0  0  0  0  0  0  0  0  0  0
   21.5049   33.7696   51.2345 H   0  0  0  0  0  0  0  0  0  0  0  0
   17.0279   33.5041   53.2095 H   0  0  0  0  0  0  0  0  0  0  0  0
   16.5775   34.8484   54.2511 H   0  0  0  0  0  0  0  0  0  0  0  0
   16.8493   35.1342   52.5254 H   0  0  0  0  0  0  0  0  0  0  0  0
   19.6617   31.0396   55.7957 H   0  0  0  0  0  0  0  0  0  0  0  0
   19.0285   30.2888   57.2532 H   0  0  0  0  0  0  0  0  0  0  0  0
   17.9548   29.3951   55.2415 H   0  0  0  0  0  0  0  0  0  0  0  0
   15.9978   31.0665   56.9009 H   0  0  0  0  0  0  0  0  0  0  0  0
   16.6219   29.4302   57.2951 H   0  0  0  0  0  0  0  0  0  0  0  0
   14.2910   29.9360   53.8985 H   0  0  0  0  0  0  0  0  0  0  0  0
   14.6639   31.3524   54.9148 H   0  0  0  0  0  0  0  0  0  0  0  0
   16.1278   31.3484   52.9228 H   0  0  0  0  0  0  0  0  0  0  0  0
   16.6831   29.6933   53.3149 H   0  0  0  0  0  0  0  0  0  0  0  0
   19.9914   32.9599   60.7416 H   0  0  0  0  0  0  0  0  0  0  0  0
   18.6485   34.0533   61.1913 H   0  0  0  0  0  0  0  0  0  0  0  0
   18.4480   31.9830   62.5291 H   0  0  0  0  0  0  0  0  0  0  0  0
   18.5760   30.9984   61.0667 H   0  0  0  0  0  0  0  0  0  0  0  0
   16.2921   32.9076   61.7669 H   0  0  0  0  0  0  0  0  0  0  0  0
   16.2039   31.1387   61.6828 H   0  0  0  0  0  0  0  0  0  0  0  0
   11.9258   26.5690   55.3381 H   0  0  0  0  0  0  0  0  0  0  0  0
   13.8192   27.8345   54.4329 H   0  0  0  0  0  0  0  0  0  0  0  0
   14.5202   29.6942   58.2239 H   0  0  0  0  0  0  0  0  0  0  0  0
  1  2  1  0  0  0  0
  2  3  1  0  0  0  0
  3  4  1  0  0  0  0
  2  5  1  0  0  0  0
  5  6  4  0  0  0  0
  6  7  4  0  0  0  0
  7  8  4  0  0  0  0
  8  9  4  0  0  0  0
  5 10  4  0  0  0  0
  9 10  4  0  0  0  0
 10 11  1  0  0  0  0
 11 12  1  0  0  0  0
 12 13  1  0  0  0  0
 13 14  1  0  0  0  0
 11 15  2  0  0  0  0
 15 16  1  0  0  0  0
 16 17  1  0  0  0  0
 17 18  1  0  0  0  0
 17 19  1  0  0  0  0
 17 20  1  0  0  0  0
 20 21  1  0  0  0  0
 21 22  1  0  0  0  0
 22 23  1  0  0  0  0
 23 24  1  0  0  0  0
 24 25  1  0  0  0  0
 25 26  4  0  0  0  0
 26 27  1  0  0  0  0
 27 28  1  0  0  0  0
 28 29  4  0  0  0  0
 29 30  1  0  0  0  0
 30 31  1  0  0  0  0
 31 32  1  0  0  0  0
 31 33  1  0  0  0  0
 30 34  1  0  0  0  0
 34 35  4  0  0  0  0
 35 36  1  0  0  0  0
 36 37  1  0  0  0  0
 36 38  1  0  0  0  0
 38 39  1  0  0  0  0
 39 40  1  0  0  0  0
 40 41  4  0  0  0  0
 41 42  1  0  0  0  0
 42 43  3  0  0  0  0
 43 44  1  0  0  0  0
 44 45  1  0  0  0  0
 45 46  1  0  0  0  0
 45 47  1  0  0  0  0
 44 48  1  0  0  0  0
 44 49  1  0  0  0  0
 41 50  2  0  0  0  0
 40 51  1  0  0  0  0
 36 52  1  0  0  0  0
 51 52  1  0  0  0  0
 35 53  2  0  0  0  0
 34 54  1  0  0  0  0
 29 55  2  0  0  0  0
 27 56  1  0  0  0  0
 56 57  1  0  0  0  0
 57 58  1  0  0  0  0
 58 59  1  0  0  0  0
 59 60  1  0  0  0  0
 60 61  1  0  0  0  0
 57 62  1  0  0  0  0
 61 62  1  0  0  0  0
 26 63  2  0  0  0  0
 25 64  1  0  0  0  0
 64 65  1  0  0  0  0
 23 66  1  0  0  0  0
 65 66  1  0  0  0  0
 22 67  2  0  0  0  0
 15 68  4  0  0  0  0
 12 69  1  0  0  0  0
 68 69  4  0  0  0  0
 69 70  4  0  0  0  0
 70 71  2  0  0  0  0
 59 72  1  0  0  0  0
 71 72  4  0  0  0  0
 68 73  4  0  0  0  0
 72 73  4  0  0  0  0
  1 74  1  0  0  0  0
  1 75  1  0  0  0  0
  1 76  1  0  0  0  0
  2 77  1  0  0  0  0
  4 78  1  0  0  0  0
  4 79  1  0  0  0  0
  4 80  1  0  0  0  0
  7 81  1  0  0  0  0
  8 82  1  0  0  0  0
  9 83  1  0  0  0  0
 13 84  1  0  0  0  0
 13 85  1  0  0  0  0
 14 86  1  0  0  0  0
 14 87  1  0  0  0  0
 14 88  1  0  0  0  0
 16 89  1  0  0  0  0
 16 90  1  0  0  0  0
 18 91  1  0  0  0  0
 18 92  1  0  0  0  0
 18 93  1  0  0  0  0
 19 94  1  0  0  0  0
 19 95  1  0  0  0  0
 19 96  1  0  0  0  0
 20 97  1  0  0  0  0
 20 98  1  0  0  0  0
 23 99  1  0  0  0  0
 24100  1  0  0  0  0
 27101  1  0  0  0  0
 28102  1  0  0  0  0
 30103  1  0  0  0  0
 31104  1  0  0  0  0
 32105  1  0  0  0  0
 32106  1  0  0  0  0
 32107  1  0  0  0  0
 33108  1  0  0  0  0
 33109  1  0  0  0  0
 33110  1  0  0  0  0
 38111  1  0  0  0  0
 38112  1  0  0  0  0
 39113  1  0  0  0  0
 39114  1  0  0  0  0
 46115  1  0  0  0  0
 46116  1  0  0  0  0
 46117  1  0  0  0  0
 47118  1  0  0  0  0
 47119  1  0  0  0  0
 47120  1  0  0  0  0
 48121  1  0  0  0  0
 48122  1  0  0  0  0
 48123  1  0  0  0  0
 49124  1  0  0  0  0
 49125  1  0  0  0  0
 49126  1  0  0  0  0
 51127  1  0  0  0  0
 51128  1  0  0  0  0
 52129  1  0  0  0  0
 52130  1  0  0  0  0
 54131  1  0  0  0  0
 54132  1  0  0  0  0
 54133  1  0  0  0  0
 56134  1  0  0  0  0
 56135  1  0  0  0  0
 57136  1  0  0  0  0
 58137  1  0  0  0  0
 58138  1  0  0  0  0
 60139  1  0  0  0  0
 60140  1  0  0  0  0
 61141  1  0  0  0  0
 61142  1  0  0  0  0
 64143  1  0  0  0  0
 64144  1  0  0  0  0
 65145  1  0  0  0  0
 65146  1  0  0  0  0
 66147  1  0  0  0  0
 66148  1  0  0  0  0
 70149  1  0  0  0  0
 71150  1  0  0  0  0
 73151  1  0  0  0  0
M  END
