mol_bioactive_12
     RDKit          3D

151157  0  0  0  0  0  0  0  0999 V2000
   -0.9681   15.7297  -10.6918 C   0  0  0  0  0  0  0  0  0  0  0  0
   -0.2202   14.9517  -11.7699 C   0  0  2  0  0  0  0  0  0  0  0  0
   -1.0774   14.0516  -12.4882 O   0  0  0  0  0  0  0  0  0  0  0  0
   -2.0123   14.7045  -13.3330 C   0  0  0  0  0  0  0  0  0  0  0  0
    0.9982   14.1972  -11.2483 C   0  0  0  0  0  0  0  0  0  0  0  0
    2.1924   14.6753  -11.7219 N   0  0  0  0  0  0  0  0  0  0  0  0
    3.3198   13.9949  -11.4258 C   0  0  0  0  0  0  0  0  0  0  0  0
    3.3380   12.8369  -10.6789 C   0  0  0  0  0  0  0  0  0  0  0  0
    2.1285   12.3638  -10.1821 C   0  0  0  0  0  0  0  0  0  0  0  0
    0.9346   13.0601  -10.4243 C   0  0  0  0  0  0  0  0  0  0  0  0
   -0.3078   12.5124   -9.8681 C   0  0  0  0  0  0  0  0  0  0  0  0
   -1.0558   11.5600  -10.5413 N   0  0  0  0  0  0  0  0  0  0  0  0
   -0.6847   10.9104  -11.7924 C   0  0  0  0  0  0  0  0  0  0  0  0
   -0.0720    9.5383  -11.5623 C   0  0  0  0  0  0  0  0  0  0  0  0
   -0.9771   12.8030   -8.6769 C   0  0  0  0  0  0  0  0  0  0  0  0
   -0.5862   13.7668   -7.5773 C   0  0  0  0  0  0  0  0  0  0  0  0
    0.4614   13.3218   -6.5125 C   0  0  0  0  0  0  0  0  0  0  0  0
    0.2377   14.1884   -5.2470 C   0  0  0  0  0  0  0  0  0  0  0  0
    1.8930   13.6225   -6.9951 C   0  0  0  0  0  0  0  0  0  0  0  0
    0.3851   11.8218   -6.1434 C   0  0  0  0  0  0  0  0  0  0  0  0
   -0.6859   11.5536   -5.2287 O   0  0  0  0  0  0  0  0  0  0  0  0
   -0.7694   10.2410   -4.8714 C   0  0  0  0  0  0  0  0  0  0  0  0
   -1.7009   10.0556   -3.6736 C   0  0  1  0  0  0  0  0  0  0  0  0
   -2.5856    8.9080   -3.9537 N   0  0  0  0  0  0  0  0  0  0  0  0
   -3.3562    8.5340   -2.8204 N   0  0  0  0  0  0  0  0  0  0  0  0
   -4.6857    8.1330   -2.9836 C   0  0  0  0  0  0  0  0  0  0  0  0
   -5.3637    8.5699   -4.2999 C   0  0  1  0  0  0  0  0  0  0  0  0
   -6.4624    7.6577   -4.6161 N   0  0  0  0  0  0  0  0  0  0  0  0
   -6.1650    6.4496   -5.2218 C   0  0  0  0  0  0  0  0  0  0  0  0
   -7.3726    5.5057   -5.4064 C   0  0  2  0  0  0  0  0  0  0  0  0
   -6.9540    4.0165   -5.2622 C   0  0  0  0  0  0  0  0  0  0  0  0
   -8.1224    3.0657   -5.5499 C   0  0  0  0  0  0  0  0  0  0  0  0
   -6.4224    3.7356   -3.8492 C   0  0  0  0  0  0  0  0  0  0  0  0
   -8.0125    5.7786   -6.7226 N   0  0  0  0  0  0  0  0  0  0  0  0
   -9.3700    6.1023   -6.7362 C   0  0  0  0  0  0  0  0  0  0  0  0
  -10.0938    6.2612   -8.0950 C   0  0  0  0  0  0  0  0  0  0  0  0
  -11.4888    6.8782   -7.8950 C   0  0  0  0  0  0  0  0  0  0  0  0
  -12.2606    6.9300   -9.2090 C   0  0  0  0  0  0  0  0  0  0  0  0
  -12.2889    5.6113   -9.8356 N   0  0  0  0  0  0  0  0  0  0  0  0
  -13.4370    4.8919  -10.1361 C   0  0  0  0  0  0  0  0  0  0  0  0
  -14.7238    5.4567   -9.7955 C   0  0  0  0  0  0  0  0  0  0  0  0
  -15.8144    5.8719   -9.5036 C   0  0  0  0  0  0  0  0  0  0  0  0
  -17.1807    6.3384   -9.1510 C   0  0  0  0  0  0  0  0  0  0  0  0
  -17.1823    6.7998   -7.7368 N   0  0  0  0  0  0  0  0  0  0  0  0
  -16.9132    5.7341   -6.7639 C   0  0  0  0  0  0  0  0  0  0  0  0
  -18.3923    7.5189   -7.3330 C   0  0  0  0  0  0  0  0  0  0  0  0
  -18.1714    5.1876   -9.4361 C   0  0  0  0  0  0  0  0  0  0  0  0
  -17.5046    7.5008  -10.1202 C   0  0  0  0  0  0  0  0  0  0  0  0
  -13.4278    3.7866  -10.6654 O   0  0  0  0  0  0  0  0  0  0  0  0
  -10.9854    5.0147  -10.0865 C   0  0  0  0  0  0  0  0  0  0  0  0
  -10.2141    4.8890   -8.7799 C   0  0  0  0  0  0  0  0  0  0  0  0
  -10.0086    6.1870   -5.6814 O   0  0  0  0  0  0  0  0  0  0  0  0
   -7.1255    5.8986   -7.8822 C   0  0  0  0  0  0  0  0  0  0  0  0
   -5.0495    6.1969   -5.6792 O   0  0  0  0  0  0  0  0  0  0  0  0
   -5.8697   10.0078   -4.1294 C   0  0  0  0  0  0  0  0  0  0  0  0
   -5.4384   10.9436   -5.2648 C   0  0  1  0  0  0  0  0  0  0  0  0
   -5.9709   10.4851   -6.6452 C   0  0  0  0  0  0  0  0  0  0  0  0
   -5.8071   11.5469   -7.6552 N   0  0  0  0  0  0  0  0  0  0  0  0
   -6.2368   12.8922   -7.2144 C   0  0  0  0  0  0  0  0  0  0  0  0
   -6.7833   12.8695   -5.7828 C   0  0  0  0  0  0  0  0  0  0  0  0
   -5.8524   12.2743   -4.8743 O   0  0  0  0  0  0  0  0  0  0  0  0
   -5.3282    7.5560   -2.0956 O   0  0  0  0  0  0  0  0  0  0  0  0
   -2.6232    8.2310   -1.5941 C   0  0  0  0  0  0  0  0  0  0  0  0
   -1.7003    9.3915   -1.2299 C   0  0  0  0  0  0  0  0  0  0  0  0
   -0.8409    9.7984   -2.4262 C   0  0  0  0  0  0  0  0  0  0  0  0
   -0.1296    9.3246   -5.3816 O   0  0  0  0  0  0  0  0  0  0  0  0
   -2.2532   12.1342   -8.7518 C   0  0  0  0  0  0  0  0  0  0  0  0
   -2.2678   11.3617   -9.9103 C   0  0  0  0  0  0  0  0  0  0  0  0
   -3.3772   10.5840  -10.2742 C   0  0  0  0  0  0  0  0  0  0  0  0
   -4.5263   10.6604   -9.4811 C   0  0  0  0  0  0  0  0  0  0  0  0
   -4.5855   11.4678   -8.3443 C   0  0  0  0  0  0  0  0  0  0  0  0
   -3.4242   12.1573   -7.9524 C   0  0  0  0  0  0  0  0  0  0  0  0
   -9.4080    7.1066   -8.9296 F   0  0  0  0  0  0  0  0  0  0  0  0
   -1.6371   15.0883  -10.1145 H   0  0  0  0  0  0  0  0  0  0  0  0
   -0.2820   16.2461  -10.0131 H   0  0  0  0  0  0  0  0  0  0  0  0
   -1.6116   16.4904  -11.1501 H   0  0  0  0  0  0  0  0  0  0  0  0
    0.1619   15.6865  -12.4924 H   0  0  0  0  0  0  0  0  0  0  0  0
   -2.7615   15.2383  -12.7421 H   0  0  0  0  0  0  0  0  0  0  0  0
   -1.5085   15.3905  -14.0204 H   0  0  0  0  0  0  0  0  0  0  0  0
   -2.5264   13.9414  -13.9241 H   0  0  0  0  0  0  0  0  0  0  0  0
    4.2349   14.4162  -11.8335 H   0  0  0  0  0  0  0  0  0  0  0  0
    4.2667   12.3144  -10.4830 H   0  0  0  0  0  0  0  0  0  0  0  0
    2.1159   11.4500   -9.5924 H   0  0  0  0  0  0  0  0  0  0  0  0
   -1.5838   10.8349  -12.4148 H   0  0  0  0  0  0  0  0  0  0  0  0
    0.0162   11.5481  -12.3397 H   0  0  0  0  0  0  0  0  0  0  0  0
    0.8647    9.6140  -11.0012 H   0  0  0  0  0  0  0  0  0  0  0  0
   -0.7469    8.8888  -10.9963 H   0  0  0  0  0  0  0  0  0  0  0  0
    0.1444    9.0552  -12.5194 H   0  0  0  0  0  0  0  0  0  0  0  0
   -0.2504   14.7020   -8.0412 H   0  0  0  0  0  0  0  0  0  0  0  0
   -1.5102   14.0464   -7.0520 H   0  0  0  0  0  0  0  0  0  0  0  0
    0.9361   13.9124   -4.4493 H   0  0  0  0  0  0  0  0  0  0  0  0
    0.3858   15.2511   -5.4675 H   0  0  0  0  0  0  0  0  0  0  0  0
   -0.7774   14.0740   -4.8504 H   0  0  0  0  0  0  0  0  0  0  0  0
    2.6050   13.5955   -6.1605 H   0  0  0  0  0  0  0  0  0  0  0  0
    2.2386   12.8769   -7.7071 H   0  0  0  0  0  0  0  0  0  0  0  0
    1.9722   14.6139   -7.4547 H   0  0  0  0  0  0  0  0  0  0  0  0
    0.2907   11.1941   -7.0369 H   0  0  0  0  0  0  0  0  0  0  0  0
    1.3190   11.5321   -5.6406 H   0  0  0  0  0  0  0  0  0  0  0  0
   -2.3161   10.9534   -3.5433 H   0  0  0  0  0  0  0  0  0  0  0  0
   -2.0126    8.1045   -4.2487 H   0  0  0  0  0  0  0  0  0  0  0  0
   -4.6431    8.4996   -5.1186 H   0  0  0  0  0  0  0  0  0  0  0  0
   -7.2337    7.6406   -3.9567 H   0  0  0  0  0  0  0  0  0  0  0  0
   -8.0822    5.7216   -4.5985 H   0  0  0  0  0  0  0  0  0  0  0  0
   -6.1498    3.7837   -5.9717 H   0  0  0  0  0  0  0  0  0  0  0  0
   -8.9800    3.2861   -4.9070 H   0  0  0  0  0  0  0  0  0  0  0  0
   -8.4463    3.1393   -6.5923 H   0  0  0  0  0  0  0  0  0  0  0  0
   -7.8270    2.0267   -5.3768 H   0  0  0  0  0  0  0  0  0  0  0  0
   -7.1771    3.9668   -3.0889 H   0  0  0  0  0  0  0  0  0  0  0  0
   -6.1455    2.6811   -3.7418 H   0  0  0  0  0  0  0  0  0  0  0  0
   -5.5299    4.3305   -3.6317 H   0  0  0  0  0  0  0  0  0  0  0  0
  -12.0639    6.2916   -7.1665 H   0  0  0  0  0  0  0  0  0  0  0  0
  -11.3938    7.8950   -7.4958 H   0  0  0  0  0  0  0  0  0  0  0  0
  -13.2664    7.3178   -9.0323 H   0  0  0  0  0  0  0  0  0  0  0  0
  -11.7710    7.6147   -9.9118 H   0  0  0  0  0  0  0  0  0  0  0  0
  -16.7927    6.1580   -5.7595 H   0  0  0  0  0  0  0  0  0  0  0  0
  -17.7199    4.9934   -6.7132 H   0  0  0  0  0  0  0  0  0  0  0  0
  -15.9750    5.2101   -6.9744 H   0  0  0  0  0  0  0  0  0  0  0  0
  -18.3114    7.8536   -6.2919 H   0  0  0  0  0  0  0  0  0  0  0  0
  -18.5338    8.4318   -7.9178 H   0  0  0  0  0  0  0  0  0  0  0  0
  -19.2957    6.9044   -7.4152 H   0  0  0  0  0  0  0  0  0  0  0  0
  -17.9241    4.2794   -8.8756 H   0  0  0  0  0  0  0  0  0  0  0  0
  -19.2036    5.4647   -9.1979 H   0  0  0  0  0  0  0  0  0  0  0  0
  -18.1480    4.9073  -10.4978 H   0  0  0  0  0  0  0  0  0  0  0  0
  -16.8918    8.3850   -9.9055 H   0  0  0  0  0  0  0  0  0  0  0  0
  -17.2980    7.2194  -11.1610 H   0  0  0  0  0  0  0  0  0  0  0  0
  -18.5590    7.7945  -10.0748 H   0  0  0  0  0  0  0  0  0  0  0  0
  -11.0810    4.0312  -10.5548 H   0  0  0  0  0  0  0  0  0  0  0  0
  -10.4508    5.6588  -10.7939 H   0  0  0  0  0  0  0  0  0  0  0  0
   -9.2348    4.4499   -8.9919 H   0  0  0  0  0  0  0  0  0  0  0  0
  -10.7312    4.1889   -8.1110 H   0  0  0  0  0  0  0  0  0  0  0  0
   -6.3814    5.0988   -7.8624 H   0  0  0  0  0  0  0  0  0  0  0  0
   -7.6510    5.8387   -8.8318 H   0  0  0  0  0  0  0  0  0  0  0  0
   -6.6285    6.8724   -7.8459 H   0  0  0  0  0  0  0  0  0  0  0  0
   -6.9654   10.0329   -4.0346 H   0  0  0  0  0  0  0  0  0  0  0  0
   -5.5027   10.4408   -3.1880 H   0  0  0  0  0  0  0  0  0  0  0  0
   -4.3446   10.9757   -5.2967 H   0  0  0  0  0  0  0  0  0  0  0  0
   -5.4958    9.5492   -6.9627 H   0  0  0  0  0  0  0  0  0  0  0  0
   -7.0436   10.2670   -6.5724 H   0  0  0  0  0  0  0  0  0  0  0  0
   -5.4279   13.6275   -7.2663 H   0  0  0  0  0  0  0  0  0  0  0  0
   -7.0213   13.2418   -7.8943 H   0  0  0  0  0  0  0  0  0  0  0  0
   -6.9709   13.8933   -5.4441 H   0  0  0  0  0  0  0  0  0  0  0  0
   -7.7353   12.3315   -5.7201 H   0  0  0  0  0  0  0  0  0  0  0  0
   -3.3193    8.0369   -0.7716 H   0  0  0  0  0  0  0  0  0  0  0  0
   -2.0476    7.3127   -1.7668 H   0  0  0  0  0  0  0  0  0  0  0  0
   -2.3048   10.2524   -0.9165 H   0  0  0  0  0  0  0  0  0  0  0  0
   -1.0631    9.1154   -0.3818 H   0  0  0  0  0  0  0  0  0  0  0  0
   -0.1064    9.0048   -2.6257 H   0  0  0  0  0  0  0  0  0  0  0  0
   -0.2621   10.6972   -2.1785 H   0  0  0  0  0  0  0  0  0  0  0  0
   -3.3783    9.9711  -11.1699 H   0  0  0  0  0  0  0  0  0  0  0  0
   -5.4106   10.1047   -9.7834 H   0  0  0  0  0  0  0  0  0  0  0  0
   -3.4236   12.7478   -7.0429 H   0  0  0  0  0  0  0  0  0  0  0  0
  1  2  1  0
  2  3  1  0
  2  5  1  0
  3  4  1  0
  5  6  2  0
  5 10  1  0
  6  7  1  0
  7  8  2  0
  8  9  1  0
  9 10  2  0
 10 11  1  0
 11 12  1  0
 11 15  2  0
 12 13  1  0
 12 68  1  0
 13 14  1  0
 15 16  1  0
 15 67  1  0
 16 17  1  0
 17 18  1  0
 17 19  1  0
 17 20  1  0
 20 21  1  0
 21 22  1  0
 22 23  1  0
 22 66  2  0
 23 24  1  0
 23 65  1  0
 24 25  1  0
 25 26  1  0
 25 63  1  0
 26 27  1  0
 26 62  2  0
 27 28  1  0
 27 55  1  0
 28 29  1  0
 29 30  1  0
 29 54  2  0
 30 31  1  0
 30 34  1  0
 31 32  1  0
 31 33  1  0
 34 35  1  0
 34 53  1  0
 35 36  1  0
 35 52  2  0
 36 37  1  0
 36 51  1  0
 36 73  1  0
 37 38  1  0
 38 39  1  0
 39 40  1  0
 39 50  1  0
 40 41  1  0
 40 49  2  0
 42 43  1  0
 43 44  1  0
 43 47  1  0
 43 48  1  0
 44 45  1  0
 44 46  1  0
 50 51  1  0
 55 56  1  0
 56 57  1  0
 56 61  1  0
 57 58  1  0
 58 59  1  0
 58 71  1  0
 59 60  1  0
 60 61  1  0
 63 64  1  0
 64 65  1  0
 67 68  2  0
 67 72  1  0
 68 69  1  0
 69 70  2  0
 70 71  1  0
 71 72  2  0
 41 42  3  0
  1 74  1  0
  1 75  1  0
  1 76  1  0
  2 77  1  6
  4 78  1  0
  4 79  1  0
  4 80  1  0
  7 81  1  0
  8 82  1  0
  9 83  1  0
 13 84  1  0
 13 85  1  0
 14 86  1  0
 14 87  1  0
 14 88  1  0
 16 89  1  0
 16 90  1  0
 18 91  1  0
 18 92  1  0
 18 93  1  0
 19 94  1  0
 19 95  1  0
 19 96  1  0
 20 97  1  0
 20 98  1  0
 23 99  1  1
 24100  1  0
 27101  1  6
 28102  1  0
 30103  1  1
 31104  1  0
 32105  1  0
 32106  1  0
 32107  1  0
 33108  1  0
 33109  1  0
 33110  1  0
 37111  1  0
 37112  1  0
 38113  1  0
 38114  1  0
 45115  1  0
 45116  1  0
 45117  1  0
 46118  1  0
 46119  1  0
 46120  1  0
 47121  1  0
 47122  1  0
 47123  1  0
 48124  1  0
 48125  1  0
 48126  1  0
 50127  1  0
 50128  1  0
 51129  1  0
 51130  1  0
 53131  1  0
 53132  1  0
 53133  1  0
 55134  1  0
 55135  1  0
 56136  1  6
 57137  1  0
 57138  1  0
 59139  1  0
 59140  1  0
 60141  1  0
 60142  1  0
 63143  1  0
 63144  1  0
 64145  1  0
 64146  1  0
 65147  1  0
 65148  1  0
 69149  1  0
 70150  1  0
 72151  1  0
M  END
$$$$
