mol_ETKDG4_22
     RDKit          3D

151157  0  0  0  0  0  0  0  0999 V2000
    3.2311    7.8935   -7.9766 C   0  0  0  0  0  0  0  0  0  0  0  0
    2.8833    6.4533   -7.5855 C   0  0  2  0  0  0  0  0  0  0  0  0
    4.0204    5.6073   -7.8114 O   0  0  0  0  0  0  0  0  0  0  0  0
    4.9527    5.6294   -6.7398 C   0  0  0  0  0  0  0  0  0  0  0  0
    1.6934    5.9076   -8.3734 C   0  0  0  0  0  0  0  0  0  0  0  0
    1.4490    6.4603   -9.5976 N   0  0  0  0  0  0  0  0  0  0  0  0
    0.4077    5.9878  -10.3151 C   0  0  0  0  0  0  0  0  0  0  0  0
   -0.4311    4.9824   -9.8773 C   0  0  0  0  0  0  0  0  0  0  0  0
   -0.1856    4.4225   -8.6283 C   0  0  0  0  0  0  0  0  0  0  0  0
    0.8928    4.8704   -7.8575 C   0  0  0  0  0  0  0  0  0  0  0  0
    1.1374    4.2630   -6.5436 C   0  0  0  0  0  0  0  0  0  0  0  0
    0.5095    4.6797   -5.3861 N   0  0  0  0  0  0  0  0  0  0  0  0
   -0.5521    5.6761   -5.3016 C   0  0  0  0  0  0  0  0  0  0  0  0
   -1.9290    5.0401   -5.2255 C   0  0  0  0  0  0  0  0  0  0  0  0
    2.0438    3.2615   -6.1954 C   0  0  0  0  0  0  0  0  0  0  0  0
    2.9204    2.4913   -7.1550 C   0  0  0  0  0  0  0  0  0  0  0  0
    2.4331    1.0691   -7.5703 C   0  0  0  0  0  0  0  0  0  0  0  0
    3.2756    0.6269   -8.7893 C   0  0  0  0  0  0  0  0  0  0  0  0
    0.9553    1.0538   -7.9938 C   0  0  0  0  0  0  0  0  0  0  0  0
    2.6314    0.0389   -6.4382 C   0  0  0  0  0  0  0  0  0  0  0  0
    4.0286   -0.0544   -6.1114 O   0  0  0  0  0  0  0  0  0  0  0  0
    4.3276   -0.9303   -5.1138 C   0  0  0  0  0  0  0  0  0  0  0  0
    5.8256   -0.8798   -4.8001 C   0  0  1  0  0  0  0  0  0  0  0  0
    6.1471   -1.9093   -3.8025 N   0  0  0  0  0  0  0  0  0  0  0  0
    7.4804   -1.7967   -3.3667 N   0  0  0  0  0  0  0  0  0  0  0  0
    7.8791   -1.6144   -2.0341 C   0  0  0  0  0  0  0  0  0  0  0  0
    6.7989   -1.1199   -1.0325 C   0  0  1  0  0  0  0  0  0  0  0  0
    6.9831   -1.6543    0.3180 N   0  0  0  0  0  0  0  0  0  0  0  0
    6.8439   -3.0174    0.5173 C   0  0  0  0  0  0  0  0  0  0  0  0
    6.6800   -3.4057    2.0049 C   0  0  2  0  0  0  0  0  0  0  0  0
    7.0655   -4.8879    2.2654 C   0  0  0  0  0  0  0  0  0  0  0  0
    6.7103   -5.3400    3.6846 C   0  0  0  0  0  0  0  0  0  0  0  0
    8.5710   -5.0936    2.0443 C   0  0  0  0  0  0  0  0  0  0  0  0
    5.2866   -3.0782    2.4281 N   0  0  0  0  0  0  0  0  0  0  0  0
    5.1125   -2.2224    3.5176 C   0  0  0  0  0  0  0  0  0  0  0  0
    3.6936   -2.0031    4.1111 C   0  0  0  0  0  0  0  0  0  0  0  0
    3.6763   -0.8724    5.1499 C   0  0  0  0  0  0  0  0  0  0  0  0
    4.3167   -1.2477    6.4839 C   0  0  0  0  0  0  0  0  0  0  0  0
    3.8585   -2.5445    6.9775 N   0  0  0  0  0  0  0  0  0  0  0  0
    3.9231   -2.8878    8.3311 C   0  0  0  0  0  0  0  0  0  0  0  0
    4.1034   -1.8459    9.3164 C   0  0  0  0  0  0  0  0  0  0  0  0
    4.2524   -1.0183   10.1764 C   0  0  0  0  0  0  0  0  0  0  0  0
    4.4363   -0.0364   11.2799 C   0  0  0  0  0  0  0  0  0  0  0  0
    4.8699    1.2642   10.7014 N   0  0  0  0  0  0  0  0  0  0  0  0
    6.1858    1.2167   10.0558 C   0  0  0  0  0  0  0  0  0  0  0  0
    4.8371    2.3900   11.6377 C   0  0  0  0  0  0  0  0  0  0  0  0
    5.4320   -0.6332   12.2998 C   0  0  0  0  0  0  0  0  0  0  0  0
    3.0592    0.0899   11.9784 C   0  0  0  0  0  0  0  0  0  0  0  0
    3.8292   -4.0402    8.7405 O   0  0  0  0  0  0  0  0  0  0  0  0
    3.8751   -3.6411    6.0236 C   0  0  0  0  0  0  0  0  0  0  0  0
    3.1387   -3.2819    4.7440 C   0  0  0  0  0  0  0  0  0  0  0  0
    6.0889   -1.6827    4.0462 O   0  0  0  0  0  0  0  0  0  0  0  0
    4.2015   -3.7004    1.6630 C   0  0  0  0  0  0  0  0  0  0  0  0
    6.7621   -3.8211   -0.4073 O   0  0  0  0  0  0  0  0  0  0  0  0
    6.8930    0.4184   -0.9964 C   0  0  0  0  0  0  0  0  0  0  0  0
    5.5816    1.1182   -0.6153 C   0  0  1  0  0  0  0  0  0  0  0  0
    4.7009    1.3672   -1.8627 C   0  0  0  0  0  0  0  0  0  0  0  0
    3.4489    2.0257   -1.4528 N   0  0  0  0  0  0  0  0  0  0  0  0
    2.7265    1.2368   -0.4302 C   0  0  0  0  0  0  0  0  0  0  0  0
    3.6590    0.9794    0.7660 C   0  0  0  0  0  0  0  0  0  0  0  0
    4.8828    0.3345    0.3730 O   0  0  0  0  0  0  0  0  0  0  0  0
    9.0621   -1.7048   -1.6909 O   0  0  0  0  0  0  0  0  0  0  0  0
    8.4567   -2.0929   -4.4184 C   0  0  0  0  0  0  0  0  0  0  0  0
    8.1992   -1.1909   -5.6329 C   0  0  0  0  0  0  0  0  0  0  0  0
    6.7123   -1.1471   -6.0254 C   0  0  0  0  0  0  0  0  0  0  0  0
    3.5027   -1.5819   -4.4849 O   0  0  0  0  0  0  0  0  0  0  0  0
    2.0653    3.2036   -4.7592 C   0  0  0  0  0  0  0  0  0  0  0  0
    1.0876    4.0767   -4.2865 C   0  0  0  0  0  0  0  0  0  0  0  0
    0.8434    4.2429   -2.9175 C   0  0  0  0  0  0  0  0  0  0  0  0
    1.6394    3.5309   -2.0133 C   0  0  0  0  0  0  0  0  0  0  0  0
    2.6516    2.6541   -2.4205 C   0  0  0  0  0  0  0  0  0  0  0  0
    2.8524    2.5085   -3.8069 C   0  0  0  0  0  0  0  0  0  0  0  0
    2.8229   -1.6109    3.1223 F   0  0  0  0  0  0  0  0  0  0  0  0
    4.0105    8.2972   -7.3228 H   0  0  0  0  0  0  0  0  0  0  0  0
    3.6266    7.9452   -8.9971 H   0  0  0  0  0  0  0  0  0  0  0  0
    2.3593    8.5522   -7.9024 H   0  0  0  0  0  0  0  0  0  0  0  0
    2.6190    6.4629   -6.5209 H   0  0  0  0  0  0  0  0  0  0  0  0
    4.4730    5.3535   -5.7957 H   0  0  0  0  0  0  0  0  0  0  0  0
    5.7353    4.8966   -6.9536 H   0  0  0  0  0  0  0  0  0  0  0  0
    5.4209    6.6141   -6.6501 H   0  0  0  0  0  0  0  0  0  0  0  0
    0.2636    6.4577  -11.2833 H   0  0  0  0  0  0  0  0  0  0  0  0
   -1.2528    4.6375  -10.4941 H   0  0  0  0  0  0  0  0  0  0  0  0
   -0.8301    3.6270   -8.2621 H   0  0  0  0  0  0  0  0  0  0  0  0
   -0.3635    6.2952   -4.4182 H   0  0  0  0  0  0  0  0  0  0  0  0
   -0.4860    6.3429   -6.1660 H   0  0  0  0  0  0  0  0  0  0  0  0
   -2.0111    4.3618   -4.3690 H   0  0  0  0  0  0  0  0  0  0  0  0
   -2.6971    5.8129   -5.1185 H   0  0  0  0  0  0  0  0  0  0  0  0
   -2.1492    4.4619   -6.1284 H   0  0  0  0  0  0  0  0  0  0  0  0
    3.0300    3.0911   -8.0675 H   0  0  0  0  0  0  0  0  0  0  0  0
    3.9318    2.4334   -6.7335 H   0  0  0  0  0  0  0  0  0  0  0  0
    4.3497    0.6584   -8.5724 H   0  0  0  0  0  0  0  0  0  0  0  0
    3.0255   -0.3959   -9.0906 H   0  0  0  0  0  0  0  0  0  0  0  0
    3.0956    1.2779   -9.6517 H   0  0  0  0  0  0  0  0  0  0  0  0
    0.2907    1.3383   -7.1710 H   0  0  0  0  0  0  0  0  0  0  0  0
    0.7817    1.7315   -8.8353 H   0  0  0  0  0  0  0  0  0  0  0  0
    0.6517    0.0525   -8.3207 H   0  0  0  0  0  0  0  0  0  0  0  0
    2.0574    0.3208   -5.5490 H   0  0  0  0  0  0  0  0  0  0  0  0
    2.2869   -0.9493   -6.7674 H   0  0  0  0  0  0  0  0  0  0  0  0
    6.0295    0.1146   -4.3842 H   0  0  0  0  0  0  0  0  0  0  0  0
    5.4366   -2.0157   -3.0792 H   0  0  0  0  0  0  0  0  0  0  0  0
    5.8041   -1.4387   -1.3408 H   0  0  0  0  0  0  0  0  0  0  0  0
    6.5455   -1.1035    1.0515 H   0  0  0  0  0  0  0  0  0  0  0  0
    7.3861   -2.7812    2.5663 H   0  0  0  0  0  0  0  0  0  0  0  0
    6.5340   -5.5361    1.5604 H   0  0  0  0  0  0  0  0  0  0  0  0
    5.6279   -5.3536    3.8332 H   0  0  0  0  0  0  0  0  0  0  0  0
    7.0713   -6.3565    3.8705 H   0  0  0  0  0  0  0  0  0  0  0  0
    7.1534   -4.6824    4.4387 H   0  0  0  0  0  0  0  0  0  0  0  0
    8.8625   -6.1270    2.2604 H   0  0  0  0  0  0  0  0  0  0  0  0
    8.8579   -4.8814    1.0103 H   0  0  0  0  0  0  0  0  0  0  0  0
    9.1610   -4.4353    2.6932 H   0  0  0  0  0  0  0  0  0  0  0  0
    4.1589    0.0265    4.7460 H   0  0  0  0  0  0  0  0  0  0  0  0
    2.6308   -0.5910    5.3309 H   0  0  0  0  0  0  0  0  0  0  0  0
    5.4082   -1.2953    6.4089 H   0  0  0  0  0  0  0  0  0  0  0  0
    4.0875   -0.4630    7.2099 H   0  0  0  0  0  0  0  0  0  0  0  0
    7.0011    1.0549   10.7705 H   0  0  0  0  0  0  0  0  0  0  0  0
    6.2376    0.4398    9.2840 H   0  0  0  0  0  0  0  0  0  0  0  0
    6.3850    2.1633    9.5361 H   0  0  0  0  0  0  0  0  0  0  0  0
    3.8246    2.5856   12.0043 H   0  0  0  0  0  0  0  0  0  0  0  0
    5.5031    2.2446   12.4948 H   0  0  0  0  0  0  0  0  0  0  0  0
    5.1416    3.3161   11.1341 H   0  0  0  0  0  0  0  0  0  0  0  0
    5.6165    0.0474   13.1388 H   0  0  0  0  0  0  0  0  0  0  0  0
    5.0466   -1.5689   12.7246 H   0  0  0  0  0  0  0  0  0  0  0  0
    6.3971   -0.8781   11.8409 H   0  0  0  0  0  0  0  0  0  0  0  0
    3.1128    0.6815   12.8982 H   0  0  0  0  0  0  0  0  0  0  0  0
    2.3168    0.5509   11.3172 H   0  0  0  0  0  0  0  0  0  0  0  0
    2.6640   -0.8937   12.2600 H   0  0  0  0  0  0  0  0  0  0  0  0
    4.9237   -3.8926    5.8255 H   0  0  0  0  0  0  0  0  0  0  0  0
    3.4091   -4.5326    6.4590 H   0  0  0  0  0  0  0  0  0  0  0  0
    2.0724   -3.1296    4.9639 H   0  0  0  0  0  0  0  0  0  0  0  0
    3.1823   -4.1320    4.0577 H   0  0  0  0  0  0  0  0  0  0  0  0
    4.2208   -4.7795    1.8390 H   0  0  0  0  0  0  0  0  0  0  0  0
    3.2172   -3.3253    1.9334 H   0  0  0  0  0  0  0  0  0  0  0  0
    4.3375   -3.5105    0.5939 H   0  0  0  0  0  0  0  0  0  0  0  0
    7.6522    0.6970   -0.2524 H   0  0  0  0  0  0  0  0  0  0  0  0
    7.2541    0.8231   -1.9500 H   0  0  0  0  0  0  0  0  0  0  0  0
    5.8318    2.0868   -0.1621 H   0  0  0  0  0  0  0  0  0  0  0  0
    5.2613    2.0004   -2.5621 H   0  0  0  0  0  0  0  0  0  0  0  0
    4.4629    0.4182   -2.3552 H   0  0  0  0  0  0  0  0  0  0  0  0
    1.8297    1.7418   -0.0585 H   0  0  0  0  0  0  0  0  0  0  0  0
    2.4204    0.2799   -0.8713 H   0  0  0  0  0  0  0  0  0  0  0  0
    3.9082    1.9154    1.2792 H   0  0  0  0  0  0  0  0  0  0  0  0
    3.1622    0.3246    1.4872 H   0  0  0  0  0  0  0  0  0  0  0  0
    9.4787   -1.9502   -4.0561 H   0  0  0  0  0  0  0  0  0  0  0  0
    8.3407   -3.1487   -4.6902 H   0  0  0  0  0  0  0  0  0  0  0  0
    8.5179   -0.1692   -5.3862 H   0  0  0  0  0  0  0  0  0  0  0  0
    8.8036   -1.5206   -6.4847 H   0  0  0  0  0  0  0  0  0  0  0  0
    6.4306   -2.0994   -6.4941 H   0  0  0  0  0  0  0  0  0  0  0  0
    6.5609   -0.3710   -6.7847 H   0  0  0  0  0  0  0  0  0  0  0  0
    0.0848    4.9245   -2.5497 H   0  0  0  0  0  0  0  0  0  0  0  0
    1.4831    3.7175   -0.9533 H   0  0  0  0  0  0  0  0  0  0  0  0
    3.6255    1.8520   -4.1831 H   0  0  0  0  0  0  0  0  0  0  0  0
  1  2  1  0
  2  3  1  0
  2  5  1  0
  3  4  1  0
  5  6  2  0
  5 10  1  0
  6  7  1  0
  7  8  2  0
  8  9  1  0
  9 10  2  0
 10 11  1  0
 11 12  1  0
 11 15  2  0
 12 13  1  0
 12 68  1  0
 13 14  1  0
 15 16  1  0
 15 67  1  0
 16 17  1  0
 17 18  1  0
 17 19  1  0
 17 20  1  0
 20 21  1  0
 21 22  1  0
 22 23  1  0
 22 66  2  0
 23 24  1  0
 23 65  1  0
 24 25  1  0
 25 26  1  0
 25 63  1  0
 26 27  1  0
 26 62  2  0
 27 28  1  0
 27 55  1  0
 28 29  1  0
 29 30  1  0
 29 54  2  0
 30 31  1  0
 30 34  1  0
 31 32  1  0
 31 33  1  0
 34 35  1  0
 34 53  1  0
 35 36  1  0
 35 52  2  0
 36 37  1  0
 36 51  1  0
 36 73  1  0
 37 38  1  0
 38 39  1  0
 39 40  1  0
 39 50  1  0
 40 41  1  0
 40 49  2  0
 42 43  1  0
 43 44  1  0
 43 47  1  0
 43 48  1  0
 44 45  1  0
 44 46  1  0
 50 51  1  0
 55 56  1  0
 56 57  1  0
 56 61  1  0
 57 58  1  0
 58 59  1  0
 58 71  1  0
 59 60  1  0
 60 61  1  0
 63 64  1  0
 64 65  1  0
 67 68  2  0
 67 72  1  0
 68 69  1  0
 69 70  2  0
 70 71  1  0
 71 72  2  0
  1 74  1  0
  1 75  1  0
  1 76  1  0
  2 77  1  1
  4 78  1  0
  4 79  1  0
  4 80  1  0
  7 81  1  0
  8 82  1  0
  9 83  1  0
 13 84  1  0
 13 85  1  0
 14 86  1  0
 14 87  1  0
 14 88  1  0
 16 89  1  0
 16 90  1  0
 18 91  1  0
 18 92  1  0
 18 93  1  0
 19 94  1  0
 19 95  1  0
 19 96  1  0
 20 97  1  0
 20 98  1  0
 23 99  1  1
 24100  1  0
 27101  1  6
 28102  1  0
 30103  1  1
 31104  1  0
 32105  1  0
 32106  1  0
 32107  1  0
 33108  1  0
 33109  1  0
 33110  1  0
 37111  1  0
 37112  1  0
 38113  1  0
 38114  1  0
 45115  1  0
 45116  1  0
 45117  1  0
 46118  1  0
 46119  1  0
 46120  1  0
 47121  1  0
 47122  1  0
 47123  1  0
 48124  1  0
 48125  1  0
 48126  1  0
 50127  1  0
 50128  1  0
 51129  1  0
 51130  1  0
 53131  1  0
 53132  1  0
 53133  1  0
 55134  1  0
 55135  1  0
 56136  1  1
 57137  1  0
 57138  1  0
 59139  1  0
 59140  1  0
 60141  1  0
 60142  1  0
 63143  1  0
 63144  1  0
 64145  1  0
 64146  1  0
 65147  1  0
 65148  1  0
 69149  1  0
 70150  1  0
 72151  1  0
 41 42  3  0
M  END
$$$$
