mol_ETKDG4_25
     RDKit          3D

151157  0  0  0  0  0  0  0  0999 V2000
    4.0982    7.7931   -8.1162 C   0  0  0  0  0  0  0  0  0  0  0  0
    3.6289    6.4155   -7.6363 C   0  0  2  0  0  0  0  0  0  0  0  0
    4.6718    5.4524   -7.8619 O   0  0  0  0  0  0  0  0  0  0  0  0
    5.6207    5.4118   -6.8067 C   0  0  0  0  0  0  0  0  0  0  0  0
    2.3604    5.9526   -8.3536 C   0  0  0  0  0  0  0  0  0  0  0  0
    2.1329    6.4615   -9.6018 N   0  0  0  0  0  0  0  0  0  0  0  0
    1.0272    6.0614  -10.2617 C   0  0  0  0  0  0  0  0  0  0  0  0
    0.1006    5.1800   -9.7398 C   0  0  0  0  0  0  0  0  0  0  0  0
    0.3278    4.6695   -8.4669 C   0  0  0  0  0  0  0  0  0  0  0  0
    1.4743    5.0368   -7.7540 C   0  0  0  0  0  0  0  0  0  0  0  0
    1.7067    4.4584   -6.4247 C   0  0  0  0  0  0  0  0  0  0  0  0
    1.1468    4.9557   -5.2652 N   0  0  0  0  0  0  0  0  0  0  0  0
    0.1597    6.0235   -5.1861 C   0  0  0  0  0  0  0  0  0  0  0  0
   -1.2550    5.4834   -5.0612 C   0  0  0  0  0  0  0  0  0  0  0  0
    2.5137    3.3771   -6.0700 C   0  0  0  0  0  0  0  0  0  0  0  0
    3.2580    2.4848   -7.0354 C   0  0  0  0  0  0  0  0  0  0  0  0
    2.5896    1.1183   -7.3798 C   0  0  0  0  0  0  0  0  0  0  0  0
    1.1077    1.2597   -7.7598 C   0  0  0  0  0  0  0  0  0  0  0  0
    3.3336    0.5359   -8.6059 C   0  0  0  0  0  0  0  0  0  0  0  0
    2.7049    0.1131   -6.2157 C   0  0  0  0  0  0  0  0  0  0  0  0
    4.0938   -0.1088   -5.9307 O   0  0  0  0  0  0  0  0  0  0  0  0
    4.3497   -0.9372   -4.8834 C   0  0  0  0  0  0  0  0  0  0  0  0
    5.8566   -0.9920   -4.6323 C   0  0  1  0  0  0  0  0  0  0  0  0
    6.1380   -1.9919   -3.5943 N   0  0  0  0  0  0  0  0  0  0  0  0
    7.4974   -1.9516   -3.2204 N   0  0  0  0  0  0  0  0  0  0  0  0
    7.9633   -1.8334   -1.9051 C   0  0  0  0  0  0  0  0  0  0  0  0
    6.9655   -1.3352   -0.8244 C   0  0  1  0  0  0  0  0  0  0  0  0
    7.2613   -1.9942    0.4464 N   0  0  0  0  0  0  0  0  0  0  0  0
    6.9960   -3.3455    0.5843 C   0  0  0  0  0  0  0  0  0  0  0  0
    7.1573   -3.8595    2.0285 C   0  0  2  0  0  0  0  0  0  0  0  0
    7.5689   -5.3531    2.0890 C   0  0  0  0  0  0  0  0  0  0  0  0
    7.6780   -5.8330    3.5428 C   0  0  0  0  0  0  0  0  0  0  0  0
    8.9165   -5.5805    1.3907 C   0  0  0  0  0  0  0  0  0  0  0  0
    5.8955   -3.5648    2.7643 N   0  0  0  0  0  0  0  0  0  0  0  0
    5.8492   -2.3518    3.4619 C   0  0  0  0  0  0  0  0  0  0  0  0
    4.6482   -2.0835    4.4027 C   0  0  0  0  0  0  0  0  0  0  0  0
    4.5836   -3.1704    5.4959 C   0  0  0  0  0  0  0  0  0  0  0  0
    3.5198   -2.8312    6.5363 C   0  0  0  0  0  0  0  0  0  0  0  0
    3.8023   -1.5144    7.0830 N   0  0  0  0  0  0  0  0  0  0  0  0
    4.5538   -1.4478    8.2561 C   0  0  0  0  0  0  0  0  0  0  0  0
    5.1847   -0.1951    8.6054 C   0  0  0  0  0  0  0  0  0  0  0  0
    5.7796    0.8149    8.8764 C   0  0  0  0  0  0  0  0  0  0  0  0
    6.5702    2.0336    9.1929 C   0  0  0  0  0  0  0  0  0  0  0  0
    7.9038    1.6218    9.7050 N   0  0  0  0  0  0  0  0  0  0  0  0
    8.7229    0.8927    8.7293 C   0  0  0  0  0  0  0  0  0  0  0  0
    8.7023    2.7010   10.2888 C   0  0  0  0  0  0  0  0  0  0  0  0
    5.7673    2.8015   10.2703 C   0  0  0  0  0  0  0  0  0  0  0  0
    6.6345    2.9133    7.9252 C   0  0  0  0  0  0  0  0  0  0  0  0
    4.7507   -2.4122    8.9882 O   0  0  0  0  0  0  0  0  0  0  0  0
    3.7367   -0.4410    6.0998 C   0  0  0  0  0  0  0  0  0  0  0  0
    4.7839   -0.6754    5.0186 C   0  0  0  0  0  0  0  0  0  0  0  0
    6.7801   -1.5437    3.3731 O   0  0  0  0  0  0  0  0  0  0  0  0
    4.6705   -4.1809    2.2509 C   0  0  0  0  0  0  0  0  0  0  0  0
    6.5786   -4.0431   -0.3376 O   0  0  0  0  0  0  0  0  0  0  0  0
    7.1213    0.1935   -0.7016 C   0  0  0  0  0  0  0  0  0  0  0  0
    5.8178    0.9477   -0.3879 C   0  0  1  0  0  0  0  0  0  0  0  0
    5.0499    1.3237   -1.6815 C   0  0  0  0  0  0  0  0  0  0  0  0
    3.8200    2.0508   -1.3136 N   0  0  0  0  0  0  0  0  0  0  0  0
    2.9704    1.2443   -0.4064 C   0  0  0  0  0  0  0  0  0  0  0  0
    3.7909    0.8493    0.8352 C   0  0  0  0  0  0  0  0  0  0  0  0
    5.0006    0.1536    0.4907 O   0  0  0  0  0  0  0  0  0  0  0  0
    9.1553   -2.0098   -1.6268 O   0  0  0  0  0  0  0  0  0  0  0  0
    8.4045   -2.3590   -4.2979 C   0  0  0  0  0  0  0  0  0  0  0  0
    8.1579   -1.5040   -5.5474 C   0  0  0  0  0  0  0  0  0  0  0  0
    6.6626   -1.3828   -5.8780 C   0  0  0  0  0  0  0  0  0  0  0  0
    3.4966   -1.4602   -4.1790 O   0  0  0  0  0  0  0  0  0  0  0  0
    2.5695    3.3489   -4.6337 C   0  0  0  0  0  0  0  0  0  0  0  0
    1.6875    4.3205   -4.1644 C   0  0  0  0  0  0  0  0  0  0  0  0
    1.4788    4.5282   -2.7958 C   0  0  0  0  0  0  0  0  0  0  0  0
    2.2014    3.7427   -1.8897 C   0  0  0  0  0  0  0  0  0  0  0  0
    3.1151    2.7632   -2.2942 C   0  0  0  0  0  0  0  0  0  0  0  0
    3.2990    2.5898   -3.6786 C   0  0  0  0  0  0  0  0  0  0  0  0
    3.4604   -2.0969    3.7154 F   0  0  0  0  0  0  0  0  0  0  0  0
    4.9450    8.1453   -7.5183 H   0  0  0  0  0  0  0  0  0  0  0  0
    4.4472    7.7555   -9.1553 H   0  0  0  0  0  0  0  0  0  0  0  0
    3.2984    8.5369   -8.0412 H   0  0  0  0  0  0  0  0  0  0  0  0
    3.4108    6.5006   -6.5639 H   0  0  0  0  0  0  0  0  0  0  0  0
    5.1376    5.1578   -5.8584 H   0  0  0  0  0  0  0  0  0  0  0  0
    6.3528    4.6330   -7.0377 H   0  0  0  0  0  0  0  0  0  0  0  0
    6.1498    6.3637   -6.7155 H   0  0  0  0  0  0  0  0  0  0  0  0
    0.9038    6.4827  -11.2555 H   0  0  0  0  0  0  0  0  0  0  0  0
   -0.7734    4.8914  -10.3123 H   0  0  0  0  0  0  0  0  0  0  0  0
   -0.3834    3.9669   -8.0391 H   0  0  0  0  0  0  0  0  0  0  0  0
    0.4113    6.6517   -4.3253 H   0  0  0  0  0  0  0  0  0  0  0  0
    0.2497    6.6587   -6.0714 H   0  0  0  0  0  0  0  0  0  0  0  0
   -1.3658    4.8539   -4.1716 H   0  0  0  0  0  0  0  0  0  0  0  0
   -1.9708    6.3080   -4.9839 H   0  0  0  0  0  0  0  0  0  0  0  0
   -1.5277    4.8773   -5.9312 H   0  0  0  0  0  0  0  0  0  0  0  0
    3.4013    3.0381   -7.9730 H   0  0  0  0  0  0  0  0  0  0  0  0
    4.2736    2.3235   -6.6510 H   0  0  0  0  0  0  0  0  0  0  0  0
    0.5098    1.6642   -6.9359 H   0  0  0  0  0  0  0  0  0  0  0  0
    0.9846    1.9086   -8.6300 H   0  0  0  0  0  0  0  0  0  0  0  0
    0.6738    0.2882   -8.0208 H   0  0  0  0  0  0  0  0  0  0  0  0
    4.4107    0.4614   -8.4286 H   0  0  0  0  0  0  0  0  0  0  0  0
    2.9659   -0.4655   -8.8539 H   0  0  0  0  0  0  0  0  0  0  0  0
    3.1918    1.1673   -9.4905 H   0  0  0  0  0  0  0  0  0  0  0  0
    2.1913    0.4832   -5.3233 H   0  0  0  0  0  0  0  0  0  0  0  0
    2.2530   -0.8469   -6.4965 H   0  0  0  0  0  0  0  0  0  0  0  0
    6.1533    0.0039   -4.2769 H   0  0  0  0  0  0  0  0  0  0  0  0
    5.4589   -1.9730   -2.8337 H   0  0  0  0  0  0  0  0  0  0  0  0
    5.9416   -1.6083   -1.0764 H   0  0  0  0  0  0  0  0  0  0  0  0
    7.1629   -1.4516    1.3023 H   0  0  0  0  0  0  0  0  0  0  0  0
    7.9763   -3.2923    2.4920 H   0  0  0  0  0  0  0  0  0  0  0  0
    6.8268   -5.9778    1.5775 H   0  0  0  0  0  0  0  0  0  0  0  0
    6.7232   -5.7416    4.0691 H   0  0  0  0  0  0  0  0  0  0  0  0
    7.9709   -6.8876    3.5811 H   0  0  0  0  0  0  0  0  0  0  0  0
    8.4266   -5.2567    4.0949 H   0  0  0  0  0  0  0  0  0  0  0  0
    9.6971   -4.9373    1.8128 H   0  0  0  0  0  0  0  0  0  0  0  0
    9.2418   -6.6205    1.5026 H   0  0  0  0  0  0  0  0  0  0  0  0
    8.8505   -5.3737    0.3181 H   0  0  0  0  0  0  0  0  0  0  0  0
    4.3481   -4.1516    5.0752 H   0  0  0  0  0  0  0  0  0  0  0  0
    5.5646   -3.2611    5.9812 H   0  0  0  0  0  0  0  0  0  0  0  0
    2.5215   -2.8094    6.0840 H   0  0  0  0  0  0  0  0  0  0  0  0
    3.5095   -3.5901    7.3250 H   0  0  0  0  0  0  0  0  0  0  0  0
    9.6207    0.4910    9.2133 H   0  0  0  0  0  0  0  0  0  0  0  0
    8.1989    0.0240    8.3159 H   0  0  0  0  0  0  0  0  0  0  0  0
    9.0493    1.5274    7.8981 H   0  0  0  0  0  0  0  0  0  0  0  0
    8.1936    3.1735   11.1341 H   0  0  0  0  0  0  0  0  0  0  0  0
    9.6360    2.3037   10.7023 H   0  0  0  0  0  0  0  0  0  0  0  0
    8.9635    3.4718    9.5566 H   0  0  0  0  0  0  0  0  0  0  0  0
    5.7421    2.2514   11.2194 H   0  0  0  0  0  0  0  0  0  0  0  0
    6.1817    3.7982   10.4608 H   0  0  0  0  0  0  0  0  0  0  0  0
    4.7235    2.9479    9.9609 H   0  0  0  0  0  0  0  0  0  0  0  0
    7.2216    3.8218    8.0901 H   0  0  0  0  0  0  0  0  0  0  0  0
    7.0659    2.3773    7.0725 H   0  0  0  0  0  0  0  0  0  0  0  0
    5.6300    3.2293    7.6165 H   0  0  0  0  0  0  0  0  0  0  0  0
    2.7298   -0.4438    5.6678 H   0  0  0  0  0  0  0  0  0  0  0  0
    3.8830    0.5359    6.5683 H   0  0  0  0  0  0  0  0  0  0  0  0
    5.7819   -0.5477    5.4567 H   0  0  0  0  0  0  0  0  0  0  0  0
    4.6696    0.0867    4.2376 H   0  0  0  0  0  0  0  0  0  0  0  0
    3.8632   -4.1553    2.9815 H   0  0  0  0  0  0  0  0  0  0  0  0
    4.3399   -3.6298    1.3653 H   0  0  0  0  0  0  0  0  0  0  0  0
    4.8457   -5.2281    1.9960 H   0  0  0  0  0  0  0  0  0  0  0  0
    7.8344    0.4080    0.1063 H   0  0  0  0  0  0  0  0  0  0  0  0
    7.5713    0.6248   -1.6070 H   0  0  0  0  0  0  0  0  0  0  0  0
    6.0831    1.8739    0.1401 H   0  0  0  0  0  0  0  0  0  0  0  0
    5.6947    1.9504   -2.3087 H   0  0  0  0  0  0  0  0  0  0  0  0
    4.7815    0.4163   -2.2314 H   0  0  0  0  0  0  0  0  0  0  0  0
    2.0786    1.7858   -0.0739 H   0  0  0  0  0  0  0  0  0  0  0  0
    2.6418    0.3405   -0.9356 H   0  0  0  0  0  0  0  0  0  0  0  0
    4.0515    1.7346    1.4272 H   0  0  0  0  0  0  0  0  0  0  0  0
    3.1993    0.1839    1.4725 H   0  0  0  0  0  0  0  0  0  0  0  0
    9.4490   -2.2675   -3.9863 H   0  0  0  0  0  0  0  0  0  0  0  0
    8.2112   -3.4176   -4.5085 H   0  0  0  0  0  0  0  0  0  0  0  0
    8.5551   -0.4971   -5.3708 H   0  0  0  0  0  0  0  0  0  0  0  0
    8.7012   -1.9206   -6.4015 H   0  0  0  0  0  0  0  0  0  0  0  0
    6.2954   -2.3381   -6.2781 H   0  0  0  0  0  0  0  0  0  0  0  0
    6.5281   -0.6405   -6.6730 H   0  0  0  0  0  0  0  0  0  0  0  0
    0.7924    5.2832   -2.4284 H   0  0  0  0  0  0  0  0  0  0  0  0
    2.0645    3.9384   -0.8280 H   0  0  0  0  0  0  0  0  0  0  0  0
    4.0027    1.8563   -4.0503 H   0  0  0  0  0  0  0  0  0  0  0  0
  1  2  1  0
  2  3  1  0
  2  5  1  0
  3  4  1  0
  5  6  2  0
  5 10  1  0
  6  7  1  0
  7  8  2  0
  8  9  1  0
  9 10  2  0
 10 11  1  0
 11 12  1  0
 11 15  2  0
 12 13  1  0
 12 68  1  0
 13 14  1  0
 15 16  1  0
 15 67  1  0
 16 17  1  0
 17 18  1  0
 17 19  1  0
 17 20  1  0
 20 21  1  0
 21 22  1  0
 22 23  1  0
 22 66  2  0
 23 24  1  0
 23 65  1  0
 24 25  1  0
 25 26  1  0
 25 63  1  0
 26 27  1  0
 26 62  2  0
 27 28  1  0
 27 55  1  0
 28 29  1  0
 29 30  1  0
 29 54  2  0
 30 31  1  0
 30 34  1  0
 31 32  1  0
 31 33  1  0
 34 35  1  0
 34 53  1  0
 35 36  1  0
 35 52  2  0
 36 37  1  0
 36 51  1  0
 36 73  1  0
 37 38  1  0
 38 39  1  0
 39 40  1  0
 39 50  1  0
 40 41  1  0
 40 49  2  0
 42 43  1  0
 43 44  1  0
 43 47  1  0
 43 48  1  0
 44 45  1  0
 44 46  1  0
 50 51  1  0
 55 56  1  0
 56 57  1  0
 56 61  1  0
 57 58  1  0
 58 59  1  0
 58 71  1  0
 59 60  1  0
 60 61  1  0
 63 64  1  0
 64 65  1  0
 67 68  2  0
 67 72  1  0
 68 69  1  0
 69 70  2  0
 70 71  1  0
 71 72  2  0
  1 74  1  0
  1 75  1  0
  1 76  1  0
  2 77  1  1
  4 78  1  0
  4 79  1  0
  4 80  1  0
  7 81  1  0
  8 82  1  0
  9 83  1  0
 13 84  1  0
 13 85  1  0
 14 86  1  0
 14 87  1  0
 14 88  1  0
 16 89  1  0
 16 90  1  0
 18 91  1  0
 18 92  1  0
 18 93  1  0
 19 94  1  0
 19 95  1  0
 19 96  1  0
 20 97  1  0
 20 98  1  0
 23 99  1  1
 24100  1  0
 27101  1  6
 28102  1  0
 30103  1  1
 31104  1  0
 32105  1  0
 32106  1  0
 32107  1  0
 33108  1  0
 33109  1  0
 33110  1  0
 37111  1  0
 37112  1  0
 38113  1  0
 38114  1  0
 45115  1  0
 45116  1  0
 45117  1  0
 46118  1  0
 46119  1  0
 46120  1  0
 47121  1  0
 47122  1  0
 47123  1  0
 48124  1  0
 48125  1  0
 48126  1  0
 50127  1  0
 50128  1  0
 51129  1  0
 51130  1  0
 53131  1  0
 53132  1  0
 53133  1  0
 55134  1  0
 55135  1  0
 56136  1  1
 57137  1  0
 57138  1  0
 59139  1  0
 59140  1  0
 60141  1  0
 60142  1  0
 63143  1  0
 63144  1  0
 64145  1  0
 64146  1  0
 65147  1  0
 65148  1  0
 69149  1  0
 70150  1  0
 72151  1  0
 41 42  3  0
M  END
$$$$
