 energy: -221.286660712011 gnorm: 0.000403189723 xtb: 6.7.1 (edcfbbe)
          08152521453D

151157  0     0  0            999 V2000
    2.7922    7.6472   -8.2695 C   0  0  0  0  0  0  0  0  0  0  0  0
    2.5615    6.2439   -7.7125 C   0  0  0  0  0  0  0  0  0  0  0  0
    3.7008    5.4098   -7.8688 O   0  0  0  0  0  0  0  0  0  0  0  0
    4.6779    5.5651   -6.8741 C   0  0  0  0  0  0  0  0  0  0  0  0
    1.4188    5.5458   -8.4248 C   0  0  0  0  0  0  0  0  0  0  0  0
    1.0614    6.0183   -9.6060 N   0  0  0  0  0  0  0  0  0  0  0  0
    0.0706    5.4417  -10.2610 C   0  0  0  0  0  0  0  0  0  0  0  0
   -0.6401    4.3626   -9.7616 C   0  0  0  0  0  0  0  0  0  0  0  0
   -0.2760    3.8638   -8.5224 C   0  0  0  0  0  0  0  0  0  0  0  0
    0.7832    4.4445   -7.8329 C   0  0  0  0  0  0  0  0  0  0  0  0
    1.1973    3.9510   -6.5109 C   0  0  0  0  0  0  0  0  0  0  0  0
    0.5725    4.4149   -5.3731 N   0  0  0  0  0  0  0  0  0  0  0  0
   -0.5414    5.3231   -5.3274 C   0  0  0  0  0  0  0  0  0  0  0  0
   -1.8725    4.5871   -5.1773 C   0  0  0  0  0  0  0  0  0  0  0  0
    2.2120    3.0871   -6.1793 C   0  0  0  0  0  0  0  0  0  0  0  0
    3.1454    2.3951   -7.1183 C   0  0  0  0  0  0  0  0  0  0  0  0
    2.7579    0.9476   -7.4948 C   0  0  0  0  0  0  0  0  0  0  0  0
    1.3250    0.8843   -8.0194 C   0  0  0  0  0  0  0  0  0  0  0  0
    3.7214    0.4475   -8.5738 C   0  0  0  0  0  0  0  0  0  0  0  0
    2.8490    0.0277   -6.2699 C   0  0  0  0  0  0  0  0  0  0  0  0
    4.1937   -0.0312   -5.7815 O   0  0  0  0  0  0  0  0  0  0  0  0
    4.7037   -1.2185   -5.4958 C   0  0  0  0  0  0  0  0  0  0  0  0
    6.1617   -1.1023   -5.0715 C   0  0  0  0  0  0  0  0  0  0  0  0
    6.3325   -1.8492   -3.8314 N   0  0  0  0  0  0  0  0  0  0  0  0
    7.6766   -1.9223   -3.4606 N   0  0  0  0  0  0  0  0  0  0  0  0
    8.1002   -1.5104   -2.2463 C   0  0  0  0  0  0  0  0  0  0  0  0
    6.9961   -0.9867   -1.3177 C   0  0  0  0  0  0  0  0  0  0  0  0
    7.0955   -1.6883   -0.0584 N   0  0  0  0  0  0  0  0  0  0  0  0
    6.9042   -3.0133    0.0084 C   0  0  0  0  0  0  0  0  0  0  0  0
    6.9700   -3.5323    1.4515 C   0  0  0  0  0  0  0  0  0  0  0  0
    7.1132   -5.0583    1.5246 C   0  0  0  0  0  0  0  0  0  0  0  0
    6.8975   -5.5549    2.9514 C   0  0  0  0  0  0  0  0  0  0  0  0
    8.5072   -5.4368    1.0284 C   0  0  0  0  0  0  0  0  0  0  0  0
    5.7886   -3.0200    2.1451 N   0  0  0  0  0  0  0  0  0  0  0  0
    5.9829   -2.0440    3.0487 C   0  0  0  0  0  0  0  0  0  0  0  0
    4.7935   -1.4967    3.8581 C   0  0  0  0  0  0  0  0  0  0  0  0
    4.5510   -2.4186    5.0592 C   0  0  0  0  0  0  0  0  0  0  0  0
    3.4783   -1.8268    5.9770 C   0  0  0  0  0  0  0  0  0  0  0  0
    3.8426   -0.4880    6.3719 N   0  0  0  0  0  0  0  0  0  0  0  0
    4.1869   -0.2306    7.6589 C   0  0  0  0  0  0  0  0  0  0  0  0
    4.6486    1.1131    7.9144 C   0  0  0  0  0  0  0  0  0  0  0  0
    5.0901    2.1676    8.2912 C   0  0  0  0  0  0  0  0  0  0  0  0
    5.5225    3.4841    8.7506 C   0  0  0  0  0  0  0  0  0  0  0  0
    6.6657    3.9326    7.9478 N   0  0  0  0  0  0  0  0  0  0  0  0
    6.5069    3.7808    6.5188 C   0  0  0  0  0  0  0  0  0  0  0  0
    7.1518    5.2562    8.2695 C   0  0  0  0  0  0  0  0  0  0  0  0
    4.2902    4.4125    8.6807 C   0  0  0  0  0  0  0  0  0  0  0  0
    5.9601    3.3076   10.2153 C   0  0  0  0  0  0  0  0  0  0  0  0
    4.0957   -1.0547    8.5501 O   0  0  0  0  0  0  0  0  0  0  0  0
    4.0096    0.4251    5.2709 C   0  0  0  0  0  0  0  0  0  0  0  0
    5.1071   -0.0740    4.3295 C   0  0  0  0  0  0  0  0  0  0  0  0
    7.0980   -1.6287    3.3315 O   0  0  0  0  0  0  0  0  0  0  0  0
    4.5063   -3.4146    1.6021 C   0  0  0  0  0  0  0  0  0  0  0  0
    6.6453   -3.7057   -0.9571 O   0  0  0  0  0  0  0  0  0  0  0  0
    7.1446    0.5194   -1.1097 C   0  0  0  0  0  0  0  0  0  0  0  0
    5.8214    1.1838   -0.7152 C   0  0  0  0  0  0  0  0  0  0  0  0
    4.8999    1.3479   -1.9351 C   0  0  0  0  0  0  0  0  0  0  0  0
    3.6444    1.9261   -1.5076 N   0  0  0  0  0  0  0  0  0  0  0  0
    3.0220    1.0802   -0.5073 C   0  0  0  0  0  0  0  0  0  0  0  0
    3.9706    0.9597    0.6833 C   0  0  0  0  0  0  0  0  0  0  0  0
    5.2088    0.4095    0.2980 O   0  0  0  0  0  0  0  0  0  0  0  0
    9.2668   -1.5514   -1.9147 O   0  0  0  0  0  0  0  0  0  0  0  0
    8.5887   -2.4920   -4.4330 C   0  0  0  0  0  0  0  0  0  0  0  0
    8.5024   -1.6933   -5.7331 C   0  0  0  0  0  0  0  0  0  0  0  0
    7.0501   -1.6467   -6.2057 C   0  0  0  0  0  0  0  0  0  0  0  0
    4.1213   -2.2685   -5.5762 O   0  0  0  0  0  0  0  0  0  0  0  0
    2.2287    3.0195   -4.7524 C   0  0  0  0  0  0  0  0  0  0  0  0
    1.1832    3.8484   -4.2867 C   0  0  0  0  0  0  0  0  0  0  0  0
    0.9432    3.9987   -2.9259 C   0  0  0  0  0  0  0  0  0  0  0  0
    1.7604    3.3291   -2.0460 C   0  0  0  0  0  0  0  0  0  0  0  0
    2.8160    2.5050   -2.4839 C   0  0  0  0  0  0  0  0  0  0  0  0
    3.0489    2.3541   -3.8402 C   0  0  0  0  0  0  0  0  0  0  0  0
    3.6207   -1.4316    3.1076 F   0  0  0  0  0  0  0  0  0  0  0  0
    3.5946    8.1434   -7.7294 H   0  0  0  0  0  0  0  0  0  0  0  0
    3.0534    7.5761   -9.3204 H   0  0  0  0  0  0  0  0  0  0  0  0
    1.8839    8.2344   -8.1723 H   0  0  0  0  0  0  0  0  0  0  0  0
    2.3141    6.3071   -6.6385 H   0  0  0  0  0  0  0  0  0  0  0  0
    4.2685    5.3445   -5.8798 H   0  0  0  0  0  0  0  0  0  0  0  0
    5.4633    4.8490   -7.1076 H   0  0  0  0  0  0  0  0  0  0  0  0
    5.1046    6.5742   -6.8681 H   0  0  0  0  0  0  0  0  0  0  0  0
   -0.1649    5.8760  -11.2237 H   0  0  0  0  0  0  0  0  0  0  0  0
   -1.4546    3.9278  -10.3198 H   0  0  0  0  0  0  0  0  0  0  0  0
   -0.8074    3.0284   -8.0894 H   0  0  0  0  0  0  0  0  0  0  0  0
   -0.3986    6.0030   -4.4814 H   0  0  0  0  0  0  0  0  0  0  0  0
   -0.5450    5.9152   -6.2475 H   0  0  0  0  0  0  0  0  0  0  0  0
   -1.8599    3.9664   -4.2846 H   0  0  0  0  0  0  0  0  0  0  0  0
   -2.6870    5.3019   -5.0973 H   0  0  0  0  0  0  0  0  0  0  0  0
   -2.0525    3.9499   -6.0394 H   0  0  0  0  0  0  0  0  0  0  0  0
    3.2113    2.9841   -8.0348 H   0  0  0  0  0  0  0  0  0  0  0  0
    4.1372    2.3656   -6.6629 H   0  0  0  0  0  0  0  0  0  0  0  0
    0.6247    1.1783   -7.2414 H   0  0  0  0  0  0  0  0  0  0  0  0
    1.2106    1.5554   -8.8666 H   0  0  0  0  0  0  0  0  0  0  0  0
    1.0796   -0.1256   -8.3408 H   0  0  0  0  0  0  0  0  0  0  0  0
    4.7504    0.5202   -8.2291 H   0  0  0  0  0  0  0  0  0  0  0  0
    3.5126   -0.5915   -8.8217 H   0  0  0  0  0  0  0  0  0  0  0  0
    3.6194    1.0456   -9.4758 H   0  0  0  0  0  0  0  0  0  0  0  0
    2.2184    0.4076   -5.4613 H   0  0  0  0  0  0  0  0  0  0  0  0
    2.5310   -0.9882   -6.5252 H   0  0  0  0  0  0  0  0  0  0  0  0
    6.4052   -0.0528   -4.8720 H   0  0  0  0  0  0  0  0  0  0  0  0
    5.9427   -2.7884   -3.9380 H   0  0  0  0  0  0  0  0  0  0  0  0
    6.0313   -1.2304   -1.7723 H   0  0  0  0  0  0  0  0  0  0  0  0
    7.3186   -1.1610    0.7710 H   0  0  0  0  0  0  0  0  0  0  0  0
    7.8320   -3.0787    1.9520 H   0  0  0  0  0  0  0  0  0  0  0  0
    6.3816   -5.5234    0.8569 H   0  0  0  0  0  0  0  0  0  0  0  0
    5.8783   -5.3739    3.2835 H   0  0  0  0  0  0  0  0  0  0  0  0
    7.0898   -6.6235    3.0077 H   0  0  0  0  0  0  0  0  0  0  0  0
    7.5761   -5.0458    3.6325 H   0  0  0  0  0  0  0  0  0  0  0  0
    8.6253   -6.5176    1.0281 H   0  0  0  0  0  0  0  0  0  0  0  0
    8.6580   -5.0731    0.0158 H   0  0  0  0  0  0  0  0  0  0  0  0
    9.2715   -5.0054    1.6713 H   0  0  0  0  0  0  0  0  0  0  0  0
    4.2377   -3.4056    4.7162 H   0  0  0  0  0  0  0  0  0  0  0  0
    5.4919   -2.5204    5.6014 H   0  0  0  0  0  0  0  0  0  0  0  0
    2.5181   -1.7959    5.4493 H   0  0  0  0  0  0  0  0  0  0  0  0
    3.3763   -2.4276    6.8828 H   0  0  0  0  0  0  0  0  0  0  0  0
    6.2364    2.7527    6.2881 H   0  0  0  0  0  0  0  0  0  0  0  0
    5.7513    4.4557    6.0847 H   0  0  0  0  0  0  0  0  0  0  0  0
    7.4640    3.9976    6.0448 H   0  0  0  0  0  0  0  0  0  0  0  0
    7.2891    5.3588    9.3421 H   0  0  0  0  0  0  0  0  0  0  0  0
    8.1237    5.3835    7.7917 H   0  0  0  0  0  0  0  0  0  0  0  0
    6.4911    6.0622    7.9139 H   0  0  0  0  0  0  0  0  0  0  0  0
    3.4708    3.9741    9.2446 H   0  0  0  0  0  0  0  0  0  0  0  0
    4.5256    5.3846    9.1071 H   0  0  0  0  0  0  0  0  0  0  0  0
    3.9662    4.5444    7.6505 H   0  0  0  0  0  0  0  0  0  0  0  0
    5.2357    2.6898   10.7405 H   0  0  0  0  0  0  0  0  0  0  0  0
    6.9277    2.8143   10.2464 H   0  0  0  0  0  0  0  0  0  0  0  0
    6.0276    4.2644   10.7263 H   0  0  0  0  0  0  0  0  0  0  0  0
    3.0617    0.4871    4.7215 H   0  0  0  0  0  0  0  0  0  0  0  0
    4.2583    1.4154    5.6554 H   0  0  0  0  0  0  0  0  0  0  0  0
    6.0715   -0.0893    4.8365 H   0  0  0  0  0  0  0  0  0  0  0  0
    5.1847    0.5782    3.4586 H   0  0  0  0  0  0  0  0  0  0  0  0
    3.8161   -3.7176    2.3885 H   0  0  0  0  0  0  0  0  0  0  0  0
    4.0563   -2.5994    1.0322 H   0  0  0  0  0  0  0  0  0  0  0  0
    4.6606   -4.2538    0.9301 H   0  0  0  0  0  0  0  0  0  0  0  0
    7.8943    0.6886   -0.3356 H   0  0  0  0  0  0  0  0  0  0  0  0
    7.5043    0.9843   -2.0285 H   0  0  0  0  0  0  0  0  0  0  0  0
    6.0220    2.1937   -0.3150 H   0  0  0  0  0  0  0  0  0  0  0  0
    5.3810    2.0311   -2.6372 H   0  0  0  0  0  0  0  0  0  0  0  0
    4.7585    0.3686   -2.4214 H   0  0  0  0  0  0  0  0  0  0  0  0
    2.0755    1.5103   -0.1839 H   0  0  0  0  0  0  0  0  0  0  0  0
    2.8300    0.0716   -0.9129 H   0  0  0  0  0  0  0  0  0  0  0  0
    4.1266    1.9578    1.1223 H   0  0  0  0  0  0  0  0  0  0  0  0
    3.5577    0.2870    1.4352 H   0  0  0  0  0  0  0  0  0  0  0  0
    9.5887   -2.4538   -4.0007 H   0  0  0  0  0  0  0  0  0  0  0  0
    8.3111   -3.5381   -4.6107 H   0  0  0  0  0  0  0  0  0  0  0  0
    8.8638   -0.6782   -5.5560 H   0  0  0  0  0  0  0  0  0  0  0  0
    9.1326   -2.1544   -6.4938 H   0  0  0  0  0  0  0  0  0  0  0  0
    6.7081   -2.6529   -6.4612 H   0  0  0  0  0  0  0  0  0  0  0  0
    6.9511   -1.0152   -7.0897 H   0  0  0  0  0  0  0  0  0  0  0  0
    0.1496    4.6325   -2.5590 H   0  0  0  0  0  0  0  0  0  0  0  0
    1.6062    3.4578   -0.9856 H   0  0  0  0  0  0  0  0  0  0  0  0
    3.8504    1.7353   -4.2067 H   0  0  0  0  0  0  0  0  0  0  0  0
  1  2  1  0  0  0  0
  2  3  1  0  0  0  0
  2  5  1  0  0  0  0
  3  4  1  0  0  0  0
  5  6  2  0  0  0  0
  5 10  1  0  0  0  0
  6  7  1  0  0  0  0
  7  8  2  0  0  0  0
  8  9  1  0  0  0  0
  9 10  2  0  0  0  0
 10 11  1  0  0  0  0
 11 12  1  0  0  0  0
 11 15  2  0  0  0  0
 12 13  1  0  0  0  0
 12 68  1  0  0  0  0
 13 14  1  0  0  0  0
 15 16  1  0  0  0  0
 15 67  1  0  0  0  0
 16 17  1  0  0  0  0
 17 18  1  0  0  0  0
 17 19  1  0  0  0  0
 17 20  1  0  0  0  0
 20 21  1  0  0  0  0
 21 22  1  0  0  0  0
 22 23  1  0  0  0  0
 22 66  2  0  0  0  0
 23 24  1  0  0  0  0
 23 65  1  0  0  0  0
 24 25  1  0  0  0  0
 25 26  1  0  0  0  0
 25 63  1  0  0  0  0
 26 27  1  0  0  0  0
 26 62  2  0  0  0  0
 27 28  1  0  0  0  0
 27 55  1  0  0  0  0
 28 29  1  0  0  0  0
 29 30  1  0  0  0  0
 29 54  2  0  0  0  0
 30 31  1  0  0  0  0
 30 34  1  0  0  0  0
 31 32  1  0  0  0  0
 31 33  1  0  0  0  0
 34 35  1  0  0  0  0
 34 53  1  0  0  0  0
 35 36  1  0  0  0  0
 35 52  2  0  0  0  0
 36 37  1  0  0  0  0
 36 51  1  0  0  0  0
 36 73  1  0  0  0  0
 37 38  1  0  0  0  0
 38 39  1  0  0  0  0
 39 40  1  0  0  0  0
 39 50  1  0  0  0  0
 40 41  1  0  0  0  0
 40 49  2  0  0  0  0
 42 43  1  0  0  0  0
 43 44  1  0  0  0  0
 43 47  1  0  0  0  0
 43 48  1  0  0  0  0
 44 45  1  0  0  0  0
 44 46  1  0  0  0  0
 50 51  1  0  0  0  0
 55 56  1  0  0  0  0
 56 57  1  0  0  0  0
 56 61  1  0  0  0  0
 57 58  1  0  0  0  0
 58 59  1  0  0  0  0
 58 71  1  0  0  0  0
 59 60  1  0  0  0  0
 60 61  1  0  0  0  0
 63 64  1  0  0  0  0
 64 65  1  0  0  0  0
 67 68  2  0  0  0  0
 67 72  1  0  0  0  0
 68 69  1  0  0  0  0
 69 70  2  0  0  0  0
 70 71  1  0  0  0  0
 71 72  2  0  0  0  0
  1 74  1  0  0  0  0
  1 75  1  0  0  0  0
  1 76  1  0  0  0  0
  2 77  1  0  0  0  0
  4 78  1  0  0  0  0
  4 79  1  0  0  0  0
  4 80  1  0  0  0  0
  7 81  1  0  0  0  0
  8 82  1  0  0  0  0
  9 83  1  0  0  0  0
 13 84  1  0  0  0  0
 13 85  1  0  0  0  0
 14 86  1  0  0  0  0
 14 87  1  0  0  0  0
 14 88  1  0  0  0  0
 16 89  1  0  0  0  0
 16 90  1  0  0  0  0
 18 91  1  0  0  0  0
 18 92  1  0  0  0  0
 18 93  1  0  0  0  0
 19 94  1  0  0  0  0
 19 95  1  0  0  0  0
 19 96  1  0  0  0  0
 20 97  1  0  0  0  0
 20 98  1  0  0  0  0
 23 99  1  0  0  0  0
 24100  1  0  0  0  0
 27101  1  0  0  0  0
 28102  1  0  0  0  0
 30103  1  0  0  0  0
 31104  1  0  0  0  0
 32105  1  0  0  0  0
 32106  1  0  0  0  0
 32107  1  0  0  0  0
 33108  1  0  0  0  0
 33109  1  0  0  0  0
 33110  1  0  0  0  0
 37111  1  0  0  0  0
 37112  1  0  0  0  0
 38113  1  0  0  0  0
 38114  1  0  0  0  0
 45115  1  0  0  0  0
 45116  1  0  0  0  0
 45117  1  0  0  0  0
 46118  1  0  0  0  0
 46119  1  0  0  0  0
 46120  1  0  0  0  0
 47121  1  0  0  0  0
 47122  1  0  0  0  0
 47123  1  0  0  0  0
 48124  1  0  0  0  0
 48125  1  0  0  0  0
 48126  1  0  0  0  0
 50127  1  0  0  0  0
 50128  1  0  0  0  0
 51129  1  0  0  0  0
 51130  1  0  0  0  0
 53131  1  0  0  0  0
 53132  1  0  0  0  0
 53133  1  0  0  0  0
 55134  1  0  0  0  0
 55135  1  0  0  0  0
 56136  1  0  0  0  0
 57137  1  0  0  0  0
 57138  1  0  0  0  0
 59139  1  0  0  0  0
 59140  1  0  0  0  0
 60141  1  0  0  0  0
 60142  1  0  0  0  0
 63143  1  0  0  0  0
 63144  1  0  0  0  0
 64145  1  0  0  0  0
 64146  1  0  0  0  0
 65147  1  0  0  0  0
 65148  1  0  0  0  0
 69149  1  0  0  0  0
 70150  1  0  0  0  0
 72151  1  0  0  0  0
 41 42  3  0  0  0  0
M  END
$$$$
