 xtb: 6.7.1 (edcfbbe)
          08232519273D

151157  0     0  0            999 V2000
   -3.4120    0.7576   -4.2135 C   0  0  0  0  0  0  0  0  0  0  0  0
   -1.9122    0.5110   -4.3484 C   0  0  0  0  0  0  0  0  0  0  0  0
   -1.3930    1.6306   -5.0465 O   0  0  0  0  0  0  0  0  0  0  0  0
   -0.0169    1.5740   -5.3307 C   0  0  0  0  0  0  0  0  0  0  0  0
   -1.6428   -0.7863   -5.0872 C   0  0  0  0  0  0  0  0  0  0  0  0
   -2.2533   -0.9132   -6.2552 N   0  0  0  0  0  0  0  0  0  0  0  0
   -2.0126   -1.9678   -7.0084 C   0  0  0  0  0  0  0  0  0  0  0  0
   -1.1232   -2.9666   -6.6435 C   0  0  0  0  0  0  0  0  0  0  0  0
   -0.4960   -2.8551   -5.4166 C   0  0  0  0  0  0  0  0  0  0  0  0
   -0.7561   -1.7573   -4.5963 C   0  0  0  0  0  0  0  0  0  0  0  0
   -0.1114   -1.6647   -3.2798 C   0  0  0  0  0  0  0  0  0  0  0  0
    1.2497   -1.4950   -3.1660 N   0  0  0  0  0  0  0  0  0  0  0  0
    2.1917   -1.3184   -4.2395 C   0  0  0  0  0  0  0  0  0  0  0  0
    3.0846   -2.5449   -4.4243 C   0  0  0  0  0  0  0  0  0  0  0  0
   -0.6836   -1.7614   -2.0283 C   0  0  0  0  0  0  0  0  0  0  0  0
   -2.1229   -1.9524   -1.6668 C   0  0  0  0  0  0  0  0  0  0  0  0
   -2.6008   -3.4197   -1.5579 C   0  0  0  0  0  0  0  0  0  0  0  0
   -4.1021   -3.4214   -1.2603 C   0  0  0  0  0  0  0  0  0  0  0  0
   -2.3475   -4.1543   -2.8756 C   0  0  0  0  0  0  0  0  0  0  0  0
   -1.8374   -4.1846   -0.4579 C   0  0  0  0  0  0  0  0  0  0  0  0
   -2.3561   -4.0186    0.8689 O   0  0  0  0  0  0  0  0  0  0  0  0
   -3.1314   -4.9970    1.3318 C   0  0  0  0  0  0  0  0  0  0  0  0
   -3.4486   -4.8192    2.8120 C   0  0  0  0  0  0  0  0  0  0  0  0
   -3.9899   -3.5082    3.1417 N   0  0  0  0  0  0  0  0  0  0  0  0
   -4.0215   -3.3584    4.5340 N   0  0  0  0  0  0  0  0  0  0  0  0
   -3.0041   -2.9226    5.3122 C   0  0  0  0  0  0  0  0  0  0  0  0
   -1.7954   -2.3206    4.5698 C   0  0  0  0  0  0  0  0  0  0  0  0
   -1.9020   -0.8761    4.6169 N   0  0  0  0  0  0  0  0  0  0  0  0
   -2.5784   -0.1907    3.6859 C   0  0  0  0  0  0  0  0  0  0  0  0
   -2.6465    1.3208    3.9181 C   0  0  0  0  0  0  0  0  0  0  0  0
   -3.9836    1.7252    4.5584 C   0  0  0  0  0  0  0  0  0  0  0  0
   -3.9654    3.2137    4.9038 C   0  0  0  0  0  0  0  0  0  0  0  0
   -4.2291    0.9058    5.8253 C   0  0  0  0  0  0  0  0  0  0  0  0
   -2.3602    1.9914    2.6472 N   0  0  0  0  0  0  0  0  0  0  0  0
   -1.0496    2.1334    2.3789 C   0  0  0  0  0  0  0  0  0  0  0  0
   -0.5839    2.7600    1.0518 C   0  0  0  0  0  0  0  0  0  0  0  0
   -0.6515    1.7487   -0.0971 C   0  0  0  0  0  0  0  0  0  0  0  0
   -0.0793    2.3664   -1.3749 C   0  0  0  0  0  0  0  0  0  0  0  0
    1.2788    2.7895   -1.1422 N   0  0  0  0  0  0  0  0  0  0  0  0
    2.3013    2.1640   -1.7638 C   0  0  0  0  0  0  0  0  0  0  0  0
    3.6122    2.4487   -1.2383 C   0  0  0  0  0  0  0  0  0  0  0  0
    4.7471    2.4930   -0.8406 C   0  0  0  0  0  0  0  0  0  0  0  0
    6.1058    2.5416   -0.3081 C   0  0  0  0  0  0  0  0  0  0  0  0
    6.1670    3.6372    0.6655 N   0  0  0  0  0  0  0  0  0  0  0  0
    5.8379    4.9347    0.1126 C   0  0  0  0  0  0  0  0  0  0  0  0
    7.3819    3.7139    1.4461 C   0  0  0  0  0  0  0  0  0  0  0  0
    7.0868    2.6757   -1.4903 C   0  0  0  0  0  0  0  0  0  0  0  0
    6.3238    1.1896    0.3930 C   0  0  0  0  0  0  0  0  0  0  0  0
    2.1462    1.3914   -2.6972 O   0  0  0  0  0  0  0  0  0  0  0  0
    1.4157    3.7783   -0.1035 C   0  0  0  0  0  0  0  0  0  0  0  0
    0.8561    3.2567    1.2185 C   0  0  0  0  0  0  0  0  0  0  0  0
   -0.1944    1.7796    3.1800 O   0  0  0  0  0  0  0  0  0  0  0  0
   -3.4496    2.1280    1.7050 C   0  0  0  0  0  0  0  0  0  0  0  0
   -3.0938   -0.7290    2.7164 O   0  0  0  0  0  0  0  0  0  0  0  0
   -0.4888   -2.8030    5.1970 C   0  0  0  0  0  0  0  0  0  0  0  0
    0.7762   -2.2921    4.4867 C   0  0  0  0  0  0  0  0  0  0  0  0
    0.5390   -2.0260    2.9989 C   0  0  0  0  0  0  0  0  0  0  0  0
    1.7453   -1.5475    2.3537 N   0  0  0  0  0  0  0  0  0  0  0  0
    2.2203   -0.3522    3.0419 C   0  0  0  0  0  0  0  0  0  0  0  0
    2.4130   -0.6601    4.5266 C   0  0  0  0  0  0  0  0  0  0  0  0
    1.2195   -1.1112    5.1255 O   0  0  0  0  0  0  0  0  0  0  0  0
   -3.0688   -2.9204    6.5277 O   0  0  0  0  0  0  0  0  0  0  0  0
   -5.0629   -4.1986    5.0973 C   0  0  0  0  0  0  0  0  0  0  0  0
   -4.7270   -5.6618    4.7925 C   0  0  0  0  0  0  0  0  0  0  0  0
   -4.4805   -5.8448    3.2946 C   0  0  0  0  0  0  0  0  0  0  0  0
   -3.4689   -5.9627    0.6994 O   0  0  0  0  0  0  0  0  0  0  0  0
    0.3847   -1.6190   -1.0965 C   0  0  0  0  0  0  0  0  0  0  0  0
    1.5708   -1.4381   -1.8394 C   0  0  0  0  0  0  0  0  0  0  0  0
    2.7832   -1.2275   -1.1889 C   0  0  0  0  0  0  0  0  0  0  0  0
    2.7973   -1.2363    0.1867 C   0  0  0  0  0  0  0  0  0  0  0  0
    1.6299   -1.4443    0.9479 C   0  0  0  0  0  0  0  0  0  0  0  0
    0.4190   -1.6114    0.2981 C   0  0  0  0  0  0  0  0  0  0  0  0
   -1.3787    3.8662    0.7418 F   0  0  0  0  0  0  0  0  0  0  0  0
   -3.8802   -0.0215   -3.6186 H   0  0  0  0  0  0  0  0  0  0  0  0
   -3.5774    1.7222   -3.7430 H   0  0  0  0  0  0  0  0  0  0  0  0
   -3.8503    0.7649   -5.2066 H   0  0  0  0  0  0  0  0  0  0  0  0
   -1.4367    0.4503   -3.3553 H   0  0  0  0  0  0  0  0  0  0  0  0
    0.5841    1.3901   -4.4333 H   0  0  0  0  0  0  0  0  0  0  0  0
    0.2101    0.8014   -6.0755 H   0  0  0  0  0  0  0  0  0  0  0  0
    0.2425    2.5472   -5.7440 H   0  0  0  0  0  0  0  0  0  0  0  0
   -2.5526   -2.0052   -7.9454 H   0  0  0  0  0  0  0  0  0  0  0  0
   -0.9336   -3.8071   -7.2928 H   0  0  0  0  0  0  0  0  0  0  0  0
    0.1889   -3.6213   -5.0817 H   0  0  0  0  0  0  0  0  0  0  0  0
    1.6365   -1.1214   -5.1595 H   0  0  0  0  0  0  0  0  0  0  0  0
    2.8004   -0.4393   -4.0103 H   0  0  0  0  0  0  0  0  0  0  0  0
    3.6188   -2.7694   -3.5048 H   0  0  0  0  0  0  0  0  0  0  0  0
    2.4948   -3.4171   -4.6970 H   0  0  0  0  0  0  0  0  0  0  0  0
    3.8082   -2.3576   -5.2132 H   0  0  0  0  0  0  0  0  0  0  0  0
   -2.3059   -1.4660   -0.7058 H   0  0  0  0  0  0  0  0  0  0  0  0
   -2.7479   -1.4658   -2.4176 H   0  0  0  0  0  0  0  0  0  0  0  0
   -4.3189   -2.8546   -0.3568 H   0  0  0  0  0  0  0  0  0  0  0  0
   -4.6455   -2.9713   -2.0880 H   0  0  0  0  0  0  0  0  0  0  0  0
   -4.4618   -4.4388   -1.1257 H   0  0  0  0  0  0  0  0  0  0  0  0
   -2.7922   -5.1464   -2.8474 H   0  0  0  0  0  0  0  0  0  0  0  0
   -2.7853   -3.6040   -3.7049 H   0  0  0  0  0  0  0  0  0  0  0  0
   -1.2802   -4.2574   -3.0530 H   0  0  0  0  0  0  0  0  0  0  0  0
   -1.8640   -5.2552   -0.6843 H   0  0  0  0  0  0  0  0  0  0  0  0
   -0.8006   -3.8451   -0.4156 H   0  0  0  0  0  0  0  0  0  0  0  0
   -2.4865   -5.0012    3.3346 H   0  0  0  0  0  0  0  0  0  0  0  0
   -3.5542   -2.7122    2.6797 H   0  0  0  0  0  0  0  0  0  0  0  0
   -1.8270   -2.6185    3.5198 H   0  0  0  0  0  0  0  0  0  0  0  0
   -1.4207   -0.4095    5.3696 H   0  0  0  0  0  0  0  0  0  0  0  0
   -1.8364    1.6064    4.5977 H   0  0  0  0  0  0  0  0  0  0  0  0
   -4.7963    1.5128    3.8588 H   0  0  0  0  0  0  0  0  0  0  0  0
   -3.2310    3.4056    5.6832 H   0  0  0  0  0  0  0  0  0  0  0  0
   -3.7077    3.8241    4.0425 H   0  0  0  0  0  0  0  0  0  0  0  0
   -4.9408    3.5263    5.2689 H   0  0  0  0  0  0  0  0  0  0  0  0
   -3.4129    1.0317    6.5333 H   0  0  0  0  0  0  0  0  0  0  0  0
   -5.1463    1.2408    6.3037 H   0  0  0  0  0  0  0  0  0  0  0  0
   -4.3335   -0.1531    5.6027 H   0  0  0  0  0  0  0  0  0  0  0  0
   -0.0604    0.8739    0.1833 H   0  0  0  0  0  0  0  0  0  0  0  0
   -1.6751    1.4235   -0.2797 H   0  0  0  0  0  0  0  0  0  0  0  0
   -0.0688    1.6272   -2.1759 H   0  0  0  0  0  0  0  0  0  0  0  0
   -0.6861    3.2247   -1.6836 H   0  0  0  0  0  0  0  0  0  0  0  0
    5.5875    5.6053    0.9357 H   0  0  0  0  0  0  0  0  0  0  0  0
    6.6651    5.3864   -0.4556 H   0  0  0  0  0  0  0  0  0  0  0  0
    4.9715    4.8481   -0.5403 H   0  0  0  0  0  0  0  0  0  0  0  0
    7.5683    2.7713    1.9530 H   0  0  0  0  0  0  0  0  0  0  0  0
    8.2685    3.9842    0.8519 H   0  0  0  0  0  0  0  0  0  0  0  0
    7.2419    4.4824    2.2064 H   0  0  0  0  0  0  0  0  0  0  0  0
    8.1120    2.6927   -1.1275 H   0  0  0  0  0  0  0  0  0  0  0  0
    6.9683    1.8287   -2.1610 H   0  0  0  0  0  0  0  0  0  0  0  0
    6.8925    3.5866   -2.0515 H   0  0  0  0  0  0  0  0  0  0  0  0
    5.7630    1.1646    1.3240 H   0  0  0  0  0  0  0  0  0  0  0  0
    5.9677    0.3881   -0.2502 H   0  0  0  0  0  0  0  0  0  0  0  0
    7.3777    1.0211    0.5985 H   0  0  0  0  0  0  0  0  0  0  0  0
    2.4685    4.0382    0.0173 H   0  0  0  0  0  0  0  0  0  0  0  0
    0.8582    4.6738   -0.4058 H   0  0  0  0  0  0  0  0  0  0  0  0
    0.8755    4.0484    1.9684 H   0  0  0  0  0  0  0  0  0  0  0  0
    1.4636    2.4279    1.5799 H   0  0  0  0  0  0  0  0  0  0  0  0
   -4.2300    2.7621    2.1245 H   0  0  0  0  0  0  0  0  0  0  0  0
   -3.1166    2.5863    0.7828 H   0  0  0  0  0  0  0  0  0  0  0  0
   -3.8642    1.1402    1.4921 H   0  0  0  0  0  0  0  0  0  0  0  0
   -0.4526   -2.4821    6.2394 H   0  0  0  0  0  0  0  0  0  0  0  0
   -0.4916   -3.8942    5.1828 H   0  0  0  0  0  0  0  0  0  0  0  0
    1.5722   -3.0521    4.5815 H   0  0  0  0  0  0  0  0  0  0  0  0
    0.2334   -2.9560    2.5135 H   0  0  0  0  0  0  0  0  0  0  0  0
   -0.2510   -1.2678    2.9075 H   0  0  0  0  0  0  0  0  0  0  0  0
    3.1657   -0.0288    2.6060 H   0  0  0  0  0  0  0  0  0  0  0  0
    1.4837    0.4608    2.9615 H   0  0  0  0  0  0  0  0  0  0  0  0
    3.1962   -1.4249    4.6491 H   0  0  0  0  0  0  0  0  0  0  0  0
    2.6984    0.2457    5.0632 H   0  0  0  0  0  0  0  0  0  0  0  0
   -5.1044   -4.0153    6.1708 H   0  0  0  0  0  0  0  0  0  0  0  0
   -6.0075   -3.9163    4.6285 H   0  0  0  0  0  0  0  0  0  0  0  0
   -3.8290   -5.9388    5.3501 H   0  0  0  0  0  0  0  0  0  0  0  0
   -5.5436   -6.3041    5.1212 H   0  0  0  0  0  0  0  0  0  0  0  0
   -5.4050   -5.6772    2.7414 H   0  0  0  0  0  0  0  0  0  0  0  0
   -4.1307   -6.8537    3.0781 H   0  0  0  0  0  0  0  0  0  0  0  0
    3.6924   -1.0507   -1.7422 H   0  0  0  0  0  0  0  0  0  0  0  0
    3.7328   -1.0973    0.7067 H   0  0  0  0  0  0  0  0  0  0  0  0
   -0.5095   -1.7321    0.8308 H   0  0  0  0  0  0  0  0  0  0  0  0
  1  2  1  0  0  0  0
  2  3  1  0  0  0  0
  3  4  1  0  0  0  0
  2  5  1  0  0  0  0
  5  6  4  0  0  0  0
  6  7  4  0  0  0  0
  7  8  4  0  0  0  0
  8  9  4  0  0  0  0
  5 10  4  0  0  0  0
  9 10  4  0  0  0  0
 10 11  1  0  0  0  0
 11 12  1  0  0  0  0
 12 13  1  0  0  0  0
 13 14  1  0  0  0  0
 11 15  4  0  0  0  0
 15 16  1  0  0  0  0
 16 17  1  0  0  0  0
 17 18  1  0  0  0  0
 17 19  1  0  0  0  0
 17 20  1  0  0  0  0
 20 21  1  0  0  0  0
 21 22  1  0  0  0  0
 22 23  1  0  0  0  0
 23 24  1  0  0  0  0
 24 25  1  0  0  0  0
 25 26  4  0  0  0  0
 26 27  1  0  0  0  0
 27 28  1  0  0  0  0
 28 29  4  0  0  0  0
 29 30  1  0  0  0  0
 30 31  1  0  0  0  0
 31 32  1  0  0  0  0
 31 33  1  0  0  0  0
 30 34  1  0  0  0  0
 34 35  4  0  0  0  0
 35 36  1  0  0  0  0
 36 37  1  0  0  0  0
 37 38  1  0  0  0  0
 38 39  1  0  0  0  0
 39 40  4  0  0  0  0
 40 41  1  0  0  0  0
 41 42  3  0  0  0  0
 42 43  1  0  0  0  0
 43 44  1  0  0  0  0
 44 45  1  0  0  0  0
 44 46  1  0  0  0  0
 43 47  1  0  0  0  0
 43 48  1  0  0  0  0
 40 49  2  0  0  0  0
 39 50  1  0  0  0  0
 36 51  1  0  0  0  0
 50 51  1  0  0  0  0
 35 52  2  0  0  0  0
 34 53  1  0  0  0  0
 29 54  2  0  0  0  0
 27 55  1  0  0  0  0
 55 56  1  0  0  0  0
 56 57  1  0  0  0  0
 57 58  1  0  0  0  0
 58 59  1  0  0  0  0
 59 60  1  0  0  0  0
 56 61  1  0  0  0  0
 60 61  1  0  0  0  0
 26 62  2  0  0  0  0
 25 63  1  0  0  0  0
 63 64  1  0  0  0  0
 23 65  1  0  0  0  0
 64 65  1  0  0  0  0
 22 66  2  0  0  0  0
 15 67  4  0  0  0  0
 12 68  1  0  0  0  0
 67 68  4  0  0  0  0
 68 69  4  0  0  0  0
 69 70  2  0  0  0  0
 58 71  1  0  0  0  0
 70 71  4  0  0  0  0
 67 72  4  0  0  0  0
 71 72  4  0  0  0  0
 36 73  1  0  0  0  0
  1 74  1  0  0  0  0
  1 75  1  0  0  0  0
  1 76  1  0  0  0  0
  2 77  1  0  0  0  0
  4 78  1  0  0  0  0
  4 79  1  0  0  0  0
  4 80  1  0  0  0  0
  7 81  1  0  0  0  0
  8 82  1  0  0  0  0
  9 83  1  0  0  0  0
 13 84  1  0  0  0  0
 13 85  1  0  0  0  0
 14 86  1  0  0  0  0
 14 87  1  0  0  0  0
 14 88  1  0  0  0  0
 16 89  1  0  0  0  0
 16 90  1  0  0  0  0
 18 91  1  0  0  0  0
 18 92  1  0  0  0  0
 18 93  1  0  0  0  0
 19 94  1  0  0  0  0
 19 95  1  0  0  0  0
 19 96  1  0  0  0  0
 20 97  1  0  0  0  0
 20 98  1  0  0  0  0
 23 99  1  0  0  0  0
 24100  1  0  0  0  0
 27101  1  0  0  0  0
 28102  1  0  0  0  0
 30103  1  0  0  0  0
 31104  1  0  0  0  0
 32105  1  0  0  0  0
 32106  1  0  0  0  0
 32107  1  0  0  0  0
 33108  1  0  0  0  0
 33109  1  0  0  0  0
 33110  1  0  0  0  0
 37111  1  0  0  0  0
 37112  1  0  0  0  0
 38113  1  0  0  0  0
 38114  1  0  0  0  0
 45115  1  0  0  0  0
 45116  1  0  0  0  0
 45117  1  0  0  0  0
 46118  1  0  0  0  0
 46119  1  0  0  0  0
 46120  1  0  0  0  0
 47121  1  0  0  0  0
 47122  1  0  0  0  0
 47123  1  0  0  0  0
 48124  1  0  0  0  0
 48125  1  0  0  0  0
 48126  1  0  0  0  0
 50127  1  0  0  0  0
 50128  1  0  0  0  0
 51129  1  0  0  0  0
 51130  1  0  0  0  0
 53131  1  0  0  0  0
 53132  1  0  0  0  0
 53133  1  0  0  0  0
 55134  1  0  0  0  0
 55135  1  0  0  0  0
 56136  1  0  0  0  0
 57137  1  0  0  0  0
 57138  1  0  0  0  0
 59139  1  0  0  0  0
 59140  1  0  0  0  0
 60141  1  0  0  0  0
 60142  1  0  0  0  0
 63143  1  0  0  0  0
 63144  1  0  0  0  0
 64145  1  0  0  0  0
 64146  1  0  0  0  0
 65147  1  0  0  0  0
 65148  1  0  0  0  0
 69149  1  0  0  0  0
 70150  1  0  0  0  0
 72151  1  0  0  0  0
M  END
$$$$
