mol_bioactive_14
     RDKit          3D

151157  0  0  0  0  0  0  0  0999 V2000
  -10.7771    0.1891   -0.9478 C   0  0  0  0  0  0  0  0  0  0  0  0
   -9.6941   -0.6399   -0.2759 C   0  0  2  0  0  0  0  0  0  0  0  0
  -10.1298   -1.9876   -0.0396 O   0  0  0  0  0  0  0  0  0  0  0  0
  -10.3994   -2.7139   -1.2350 C   0  0  0  0  0  0  0  0  0  0  0  0
   -9.3172    0.0295    1.0379 C   0  0  0  0  0  0  0  0  0  0  0  0
  -10.3075    0.0228    1.9795 N   0  0  0  0  0  0  0  0  0  0  0  0
  -10.1046    0.6594    3.1477 C   0  0  0  0  0  0  0  0  0  0  0  0
   -8.9508    1.3512    3.4363 C   0  0  0  0  0  0  0  0  0  0  0  0
   -7.9373    1.3560    2.4815 C   0  0  0  0  0  0  0  0  0  0  0  0
   -8.0899    0.6843    1.2564 C   0  0  0  0  0  0  0  0  0  0  0  0
   -6.9329    0.6828    0.3370 C   0  0  0  0  0  0  0  0  0  0  0  0
   -6.8738    1.3861   -0.8540 N   0  0  0  0  0  0  0  0  0  0  0  0
   -7.9625    2.0794   -1.5429 C   0  0  0  0  0  0  0  0  0  0  0  0
   -8.3485    1.3758   -2.8340 C   0  0  0  0  0  0  0  0  0  0  0  0
   -5.6538    0.1379    0.5643 C   0  0  0  0  0  0  0  0  0  0  0  0
   -5.1511   -0.6312    1.7728 C   0  0  0  0  0  0  0  0  0  0  0  0
   -5.3536   -2.1554    1.7817 C   0  0  0  0  0  0  0  0  0  0  0  0
   -6.8539   -2.5100    1.6685 C   0  0  0  0  0  0  0  0  0  0  0  0
   -4.8686   -2.6932    3.1363 C   0  0  0  0  0  0  0  0  0  0  0  0
   -4.6169   -2.8635    0.6354 C   0  0  0  0  0  0  0  0  0  0  0  0
   -3.1825   -3.0200    0.8364 O   0  0  0  0  0  0  0  0  0  0  0  0
   -2.6314   -4.0287    0.0903 C   0  0  0  0  0  0  0  0  0  0  0  0
   -1.1182   -4.2059    0.2207 C   0  0  1  0  0  0  0  0  0  0  0  0
   -0.5421   -3.5925    1.4326 N   0  0  0  0  0  0  0  0  0  0  0  0
    0.8779   -3.7448    1.4347 N   0  0  0  0  0  0  0  0  0  0  0  0
    1.7240   -2.9132    0.6799 C   0  0  0  0  0  0  0  0  0  0  0  0
    1.1590   -1.5736    0.1805 C   0  0  1  0  0  0  0  0  0  0  0  0
    1.8124   -0.5040    0.9090 N   0  0  0  0  0  0  0  0  0  0  0  0
    1.1743    0.2749    1.8240 C   0  0  0  0  0  0  0  0  0  0  0  0
    2.0033    1.4288    2.4272 C   0  0  2  0  0  0  0  0  0  0  0  0
    2.6948    1.0036    3.7305 C   0  0  0  0  0  0  0  0  0  0  0  0
    3.5851   -0.2117    3.5331 C   0  0  0  0  0  0  0  0  0  0  0  0
    3.5746    2.1242    4.3106 C   0  0  0  0  0  0  0  0  0  0  0  0
    1.0383    2.5466    2.5652 N   0  0  0  0  0  0  0  0  0  0  0  0
    0.6624    3.1827    1.3836 C   0  0  0  0  0  0  0  0  0  0  0  0
   -0.5660    4.1206    1.3351 C   0  0  0  0  0  0  0  0  0  0  0  0
   -0.6278    4.8104   -0.0245 C   0  0  0  0  0  0  0  0  0  0  0  0
   -1.8708    5.6759   -0.1734 C   0  0  0  0  0  0  0  0  0  0  0  0
   -3.0846    4.9455    0.1844 N   0  0  0  0  0  0  0  0  0  0  0  0
   -4.3230    5.2648   -0.3580 C   0  0  0  0  0  0  0  0  0  0  0  0
   -4.3624    5.9947   -1.5913 C   0  0  0  0  0  0  0  0  0  0  0  0
   -4.3173    6.5381   -2.6754 C   0  0  0  0  0  0  0  0  0  0  0  0
   -3.9680    7.1993   -3.9455 C   0  0  0  0  0  0  0  0  0  0  0  0
   -4.3963    6.4479   -5.1541 N   0  0  0  0  0  0  0  0  0  0  0  0
   -5.7198    6.8352   -5.6884 C   0  0  0  0  0  0  0  0  0  0  0  0
   -4.3724    4.9961   -4.9785 C   0  0  0  0  0  0  0  0  0  0  0  0
   -4.4850    8.6416   -3.8991 C   0  0  0  0  0  0  0  0  0  0  0  0
   -2.4246    7.2719   -4.0381 C   0  0  0  0  0  0  0  0  0  0  0  0
   -5.3999    4.9561    0.1437 O   0  0  0  0  0  0  0  0  0  0  0  0
   -3.0722    4.2199    1.4378 C   0  0  0  0  0  0  0  0  0  0  0  0
   -1.8470    3.3397    1.5618 C   0  0  0  0  0  0  0  0  0  0  0  0
    1.2942    2.9440    0.3422 O   0  0  0  0  0  0  0  0  0  0  0  0
    0.4343    2.7514    3.8696 C   0  0  0  0  0  0  0  0  0  0  0  0
   -0.0128    0.0868    2.0842 O   0  0  0  0  0  0  0  0  0  0  0  0
    1.4246   -1.3755   -1.3150 C   0  0  0  0  0  0  0  0  0  0  0  0
    0.3015   -0.7292   -2.1182 C   0  0  1  0  0  0  0  0  0  0  0  0
   -0.4866    0.4024   -1.4210 C   0  0  0  0  0  0  0  0  0  0  0  0
   -1.5389    0.9151   -2.3007 N   0  0  0  0  0  0  0  0  0  0  0  0
   -1.2551    0.7800   -3.7557 C   0  0  0  0  0  0  0  0  0  0  0  0
    0.2556    0.8574   -3.9408 C   0  0  0  0  0  0  0  0  0  0  0  0
    0.9101   -0.2833   -3.3753 O   0  0  0  0  0  0  0  0  0  0  0  0
    2.9115   -3.1961    0.4710 O   0  0  0  0  0  0  0  0  0  0  0  0
    1.2824   -5.1419    1.6448 C   0  0  0  0  0  0  0  0  0  0  0  0
    0.7356   -5.9673    0.4800 C   0  0  0  0  0  0  0  0  0  0  0  0
   -0.7739   -5.7159    0.2679 C   0  0  0  0  0  0  0  0  0  0  0  0
   -3.2678   -4.7374   -0.6953 O   0  0  0  0  0  0  0  0  0  0  0  0
   -4.8149    0.5800   -0.5116 C   0  0  0  0  0  0  0  0  0  0  0  0
   -5.5772    1.4184   -1.3122 C   0  0  0  0  0  0  0  0  0  0  0  0
   -5.0144    2.1424   -2.3643 C   0  0  0  0  0  0  0  0  0  0  0  0
   -3.6686    1.9630   -2.6287 C   0  0  0  0  0  0  0  0  0  0  0  0
   -2.8643    1.0682   -1.9205 C   0  0  0  0  0  0  0  0  0  0  0  0
   -3.4512    0.3873   -0.8350 C   0  0  0  0  0  0  0  0  0  0  0  0
   -0.4677    5.1058    2.2820 F   0  0  0  0  0  0  0  0  0  0  0  0
  -11.7539   -0.0284   -0.5131 H   0  0  0  0  0  0  0  0  0  0  0  0
  -10.6088    1.2647   -0.8578 H   0  0  0  0  0  0  0  0  0  0  0  0
  -10.8426   -0.0691   -2.0148 H   0  0  0  0  0  0  0  0  0  0  0  0
   -8.8065   -0.6835   -0.9108 H   0  0  0  0  0  0  0  0  0  0  0  0
  -10.5578   -3.7661   -0.9673 H   0  0  0  0  0  0  0  0  0  0  0  0
  -11.3179   -2.3431   -1.6972 H   0  0  0  0  0  0  0  0  0  0  0  0
   -9.5680   -2.6548   -1.9417 H   0  0  0  0  0  0  0  0  0  0  0  0
  -10.9325    0.5975    3.8579 H   0  0  0  0  0  0  0  0  0  0  0  0
   -8.8325    1.8577    4.3853 H   0  0  0  0  0  0  0  0  0  0  0  0
   -7.0207    1.9033    2.6822 H   0  0  0  0  0  0  0  0  0  0  0  0
   -8.8050    2.1757   -0.8676 H   0  0  0  0  0  0  0  0  0  0  0  0
   -7.6241    3.0966   -1.7691 H   0  0  0  0  0  0  0  0  0  0  0  0
   -8.5218    0.3010   -2.7119 H   0  0  0  0  0  0  0  0  0  0  0  0
   -9.2190    1.8767   -3.2752 H   0  0  0  0  0  0  0  0  0  0  0  0
   -7.5305    1.4684   -3.5575 H   0  0  0  0  0  0  0  0  0  0  0  0
   -4.0774   -0.4099    1.8770 H   0  0  0  0  0  0  0  0  0  0  0  0
   -5.6460   -0.1997    2.6557 H   0  0  0  0  0  0  0  0  0  0  0  0
   -7.4197   -2.0786    2.5002 H   0  0  0  0  0  0  0  0  0  0  0  0
   -7.2807   -2.1542    0.7262 H   0  0  0  0  0  0  0  0  0  0  0  0
   -7.0020   -3.5917    1.7096 H   0  0  0  0  0  0  0  0  0  0  0  0
   -5.4779   -2.2960    3.9601 H   0  0  0  0  0  0  0  0  0  0  0  0
   -4.9294   -3.7873    3.1681 H   0  0  0  0  0  0  0  0  0  0  0  0
   -3.8280   -2.4025    3.3185 H   0  0  0  0  0  0  0  0  0  0  0  0
   -5.0751   -3.8548    0.4970 H   0  0  0  0  0  0  0  0  0  0  0  0
   -4.7476   -2.2811   -0.2915 H   0  0  0  0  0  0  0  0  0  0  0  0
   -0.6831   -3.7418   -0.6727 H   0  0  0  0  0  0  0  0  0  0  0  0
   -0.8177   -2.6244    1.5983 H   0  0  0  0  0  0  0  0  0  0  0  0
    0.0863   -1.5661    0.3423 H   0  0  0  0  0  0  0  0  0  0  0  0
    2.8101   -0.3733    0.7684 H   0  0  0  0  0  0  0  0  0  0  0  0
    2.7810    1.7130    1.7118 H   0  0  0  0  0  0  0  0  0  0  0  0
    1.8967    0.7485    4.4316 H   0  0  0  0  0  0  0  0  0  0  0  0
    4.0604   -0.5068    4.4701 H   0  0  0  0  0  0  0  0  0  0  0  0
    3.0115   -1.0670    3.1735 H   0  0  0  0  0  0  0  0  0  0  0  0
    4.3588    0.0100    2.7951 H   0  0  0  0  0  0  0  0  0  0  0  0
    3.4367    2.1916    5.3940 H   0  0  0  0  0  0  0  0  0  0  0  0
    4.6363    1.9553    4.1256 H   0  0  0  0  0  0  0  0  0  0  0  0
    3.3217    3.1086    3.8962 H   0  0  0  0  0  0  0  0  0  0  0  0
    0.2591    5.4541   -0.1707 H   0  0  0  0  0  0  0  0  0  0  0  0
   -0.6382    4.0585   -0.8301 H   0  0  0  0  0  0  0  0  0  0  0  0
   -1.8066    6.5652    0.4665 H   0  0  0  0  0  0  0  0  0  0  0  0
   -1.9250    6.0166   -1.2093 H   0  0  0  0  0  0  0  0  0  0  0  0
   -6.4884    6.7626   -4.9149 H   0  0  0  0  0  0  0  0  0  0  0  0
   -5.6729    7.8523   -6.0843 H   0  0  0  0  0  0  0  0  0  0  0  0
   -5.9747    6.1883   -6.5268 H   0  0  0  0  0  0  0  0  0  0  0  0
   -5.2210    4.6346   -4.3831 H   0  0  0  0  0  0  0  0  0  0  0  0
   -4.3909    4.5171   -5.9559 H   0  0  0  0  0  0  0  0  0  0  0  0
   -3.4601    4.6744   -4.4739 H   0  0  0  0  0  0  0  0  0  0  0  0
   -4.2394    9.1124   -2.9343 H   0  0  0  0  0  0  0  0  0  0  0  0
   -4.0310    9.2479   -4.6995 H   0  0  0  0  0  0  0  0  0  0  0  0
   -5.5758    8.6629   -3.9955 H   0  0  0  0  0  0  0  0  0  0  0  0
   -1.9834    7.6638   -3.1146 H   0  0  0  0  0  0  0  0  0  0  0  0
   -1.9765    6.2812   -4.2226 H   0  0  0  0  0  0  0  0  0  0  0  0
   -2.1380    7.9428   -4.8639 H   0  0  0  0  0  0  0  0  0  0  0  0
   -3.0866    4.9641    2.2432 H   0  0  0  0  0  0  0  0  0  0  0  0
   -3.9786    3.6068    1.5121 H   0  0  0  0  0  0  0  0  0  0  0  0
   -1.9091    2.5268    0.8169 H   0  0  0  0  0  0  0  0  0  0  0  0
   -1.8672    2.8734    2.5449 H   0  0  0  0  0  0  0  0  0  0  0  0
    1.2289    2.8583    4.5975 H   0  0  0  0  0  0  0  0  0  0  0  0
   -0.1948    3.6237    3.9267 H   0  0  0  0  0  0  0  0  0  0  0  0
   -0.1620    1.8713    4.1212 H   0  0  0  0  0  0  0  0  0  0  0  0
    2.3677   -0.7990   -1.4673 H   0  0  0  0  0  0  0  0  0  0  0  0
    1.6047   -2.3493   -1.7846 H   0  0  0  0  0  0  0  0  0  0  0  0
   -0.4241   -1.5168   -2.4025 H   0  0  0  0  0  0  0  0  0  0  0  0
   -0.9035    0.0527   -0.4737 H   0  0  0  0  0  0  0  0  0  0  0  0
    0.2087    1.2177   -1.1781 H   0  0  0  0  0  0  0  0  0  0  0  0
   -1.6015   -0.2152   -4.0539 H   0  0  0  0  0  0  0  0  0  0  0  0
   -1.7329    1.5386   -4.3571 H   0  0  0  0  0  0  0  0  0  0  0  0
    0.5059    0.8982   -4.9957 H   0  0  0  0  0  0  0  0  0  0  0  0
    0.6487    1.7537   -3.4450 H   0  0  0  0  0  0  0  0  0  0  0  0
    2.3662   -5.2228    1.7021 H   0  0  0  0  0  0  0  0  0  0  0  0
    0.8658   -5.4709    2.6073 H   0  0  0  0  0  0  0  0  0  0  0  0
    1.2648   -5.6952   -0.4394 H   0  0  0  0  0  0  0  0  0  0  0  0
    0.9097   -7.0302    0.6593 H   0  0  0  0  0  0  0  0  0  0  0  0
   -1.3291   -6.1912    1.0941 H   0  0  0  0  0  0  0  0  0  0  0  0
   -1.0808   -6.2038   -0.6676 H   0  0  0  0  0  0  0  0  0  0  0  0
   -5.5967    2.8452   -2.9459 H   0  0  0  0  0  0  0  0  0  0  0  0
   -3.2197    2.5799   -3.4016 H   0  0  0  0  0  0  0  0  0  0  0  0
   -2.8741   -0.3011   -0.2285 H   0  0  0  0  0  0  0  0  0  0  0  0
  1  2  1  0
  2  3  1  0
  2  5  1  0
  3  4  1  0
  5  6  2  0
  5 10  1  0
  6  7  1  0
  7  8  2  0
  8  9  1  0
  9 10  2  0
 10 11  1  0
 11 12  1  0
 11 15  2  0
 12 13  1  0
 12 68  1  0
 13 14  1  0
 15 16  1  0
 15 67  1  0
 16 17  1  0
 17 18  1  0
 17 19  1  0
 17 20  1  0
 20 21  1  0
 21 22  1  0
 22 23  1  0
 22 66  2  0
 23 24  1  0
 23 65  1  0
 24 25  1  0
 25 26  1  0
 25 63  1  0
 26 27  1  0
 26 62  2  0
 27 28  1  0
 27 55  1  0
 28 29  1  0
 29 30  1  0
 29 54  2  0
 30 31  1  0
 30 34  1  0
 31 32  1  0
 31 33  1  0
 34 35  1  0
 34 53  1  0
 35 36  1  0
 35 52  2  0
 36 37  1  0
 36 51  1  0
 36 73  1  0
 37 38  1  0
 38 39  1  0
 39 40  1  0
 39 50  1  0
 40 41  1  0
 40 49  2  0
 42 43  1  0
 43 44  1  0
 43 47  1  0
 43 48  1  0
 44 45  1  0
 44 46  1  0
 50 51  1  0
 55 56  1  0
 56 57  1  0
 56 61  1  0
 57 58  1  0
 58 59  1  0
 58 71  1  0
 59 60  1  0
 60 61  1  0
 63 64  1  0
 64 65  1  0
 67 68  2  0
 67 72  1  0
 68 69  1  0
 69 70  2  0
 70 71  1  0
 71 72  2  0
 41 42  3  0
  1 74  1  0
  1 75  1  0
  1 76  1  0
  2 77  1  6
  4 78  1  0
  4 79  1  0
  4 80  1  0
  7 81  1  0
  8 82  1  0
  9 83  1  0
 13 84  1  0
 13 85  1  0
 14 86  1  0
 14 87  1  0
 14 88  1  0
 16 89  1  0
 16 90  1  0
 18 91  1  0
 18 92  1  0
 18 93  1  0
 19 94  1  0
 19 95  1  0
 19 96  1  0
 20 97  1  0
 20 98  1  0
 23 99  1  6
 24100  1  0
 27101  1  6
 28102  1  0
 30103  1  6
 31104  1  0
 32105  1  0
 32106  1  0
 32107  1  0
 33108  1  0
 33109  1  0
 33110  1  0
 37111  1  0
 37112  1  0
 38113  1  0
 38114  1  0
 45115  1  0
 45116  1  0
 45117  1  0
 46118  1  0
 46119  1  0
 46120  1  0
 47121  1  0
 47122  1  0
 47123  1  0
 48124  1  0
 48125  1  0
 48126  1  0
 50127  1  0
 50128  1  0
 51129  1  0
 51130  1  0
 53131  1  0
 53132  1  0
 53133  1  0
 55134  1  0
 55135  1  0
 56136  1  6
 57137  1  0
 57138  1  0
 59139  1  0
 59140  1  0
 60141  1  0
 60142  1  0
 63143  1  0
 63144  1  0
 64145  1  0
 64146  1  0
 65147  1  0
 65148  1  0
 69149  1  0
 70150  1  0
 72151  1  0
M  END
$$$$
