 xtb: 6.7.1 (edcfbbe)
          08232515103D

151157  0     0  0            999 V2000
  -10.1851   -0.6101   -0.6949 C   0  0  0  0  0  0  0  0  0  0  0  0
   -8.7529   -0.7087   -0.1688 C   0  0  0  0  0  0  0  0  0  0  0  0
   -8.4091   -2.0320    0.2230 O   0  0  0  0  0  0  0  0  0  0  0  0
   -8.1463   -2.9091   -0.8396 C   0  0  0  0  0  0  0  0  0  0  0  0
   -8.5825    0.1516    1.0687 C   0  0  0  0  0  0  0  0  0  0  0  0
   -9.5807    0.1177    1.9353 N   0  0  0  0  0  0  0  0  0  0  0  0
   -9.4782    0.7810    3.0707 C   0  0  0  0  0  0  0  0  0  0  0  0
   -8.3624    1.5294    3.4111 C   0  0  0  0  0  0  0  0  0  0  0  0
   -7.3228    1.5900    2.5014 C   0  0  0  0  0  0  0  0  0  0  0  0
   -7.4140    0.8930    1.2982 C   0  0  0  0  0  0  0  0  0  0  0  0
   -6.3076    0.9818    0.3387 C   0  0  0  0  0  0  0  0  0  0  0  0
   -6.4596    1.6434   -0.8608 N   0  0  0  0  0  0  0  0  0  0  0  0
   -7.5986    2.4341   -1.2628 C   0  0  0  0  0  0  0  0  0  0  0  0
   -8.2110    1.9833   -2.5885 C   0  0  0  0  0  0  0  0  0  0  0  0
   -5.0128    0.5293    0.4793 C   0  0  0  0  0  0  0  0  0  0  0  0
   -4.3555   -0.1077    1.6678 C   0  0  0  0  0  0  0  0  0  0  0  0
   -4.6435   -1.5960    1.9678 C   0  0  0  0  0  0  0  0  0  0  0  0
   -6.0744   -1.8098    2.4615 C   0  0  0  0  0  0  0  0  0  0  0  0
   -3.6835   -2.0425    3.0769 C   0  0  0  0  0  0  0  0  0  0  0  0
   -4.4463   -2.4545    0.7026 C   0  0  0  0  0  0  0  0  0  0  0  0
   -3.0978   -2.8956    0.5203 O   0  0  0  0  0  0  0  0  0  0  0  0
   -2.8217   -4.1578    0.8306 C   0  0  0  0  0  0  0  0  0  0  0  0
   -1.3412   -4.4414    0.6023 C   0  0  0  0  0  0  0  0  0  0  0  0
   -0.5319   -3.6147    1.4941 N   0  0  0  0  0  0  0  0  0  0  0  0
    0.8176   -3.7233    1.1394 N   0  0  0  0  0  0  0  0  0  0  0  0
    1.4628   -2.9577    0.2328 C   0  0  0  0  0  0  0  0  0  0  0  0
    0.6994   -1.7185   -0.2775 C   0  0  0  0  0  0  0  0  0  0  0  0
    1.0944   -0.5987    0.5548 N   0  0  0  0  0  0  0  0  0  0  0  0
    0.3953   -0.2017    1.6260 C   0  0  0  0  0  0  0  0  0  0  0  0
    1.0544    0.9053    2.4538 C   0  0  0  0  0  0  0  0  0  0  0  0
    1.6653    0.3322    3.7404 C   0  0  0  0  0  0  0  0  0  0  0  0
    2.5160   -0.8966    3.4143 C   0  0  0  0  0  0  0  0  0  0  0  0
    2.5293    1.3900    4.4260 C   0  0  0  0  0  0  0  0  0  0  0  0
    0.0530    1.9594    2.6493 N   0  0  0  0  0  0  0  0  0  0  0  0
   -0.1948    2.6684    1.5286 C   0  0  0  0  0  0  0  0  0  0  0  0
   -1.2980    3.7410    1.5156 C   0  0  0  0  0  0  0  0  0  0  0  0
   -1.1055    4.6508    0.2994 C   0  0  0  0  0  0  0  0  0  0  0  0
   -2.2268    5.6866    0.2158 C   0  0  0  0  0  0  0  0  0  0  0  0
   -3.5182    5.0488    0.2271 N   0  0  0  0  0  0  0  0  0  0  0  0
   -4.4765    5.2127   -0.7095 C   0  0  0  0  0  0  0  0  0  0  0  0
   -4.1241    6.0243   -1.8462 C   0  0  0  0  0  0  0  0  0  0  0  0
   -4.0229    6.6938   -2.8423 C   0  0  0  0  0  0  0  0  0  0  0  0
   -3.9377    7.4200   -4.1082 C   0  0  0  0  0  0  0  0  0  0  0  0
   -4.7437    6.7530   -5.1448 N   0  0  0  0  0  0  0  0  0  0  0  0
   -6.1611    6.7011   -4.8301 C   0  0  0  0  0  0  0  0  0  0  0  0
   -4.2627    5.4257   -5.4839 C   0  0  0  0  0  0  0  0  0  0  0  0
   -4.4539    8.8516   -3.8864 C   0  0  0  0  0  0  0  0  0  0  0  0
   -2.4681    7.4988   -4.5517 C   0  0  0  0  0  0  0  0  0  0  0  0
   -5.5911    4.7210   -0.6198 O   0  0  0  0  0  0  0  0  0  0  0  0
   -3.7602    4.1998    1.3670 C   0  0  0  0  0  0  0  0  0  0  0  0
   -2.6909    3.1115    1.4493 C   0  0  0  0  0  0  0  0  0  0  0  0
    0.4535    2.4787    0.5088 O   0  0  0  0  0  0  0  0  0  0  0  0
   -0.7950    1.8945    3.8185 C   0  0  0  0  0  0  0  0  0  0  0  0
   -0.6949   -0.6685    1.9191 O   0  0  0  0  0  0  0  0  0  0  0  0
    1.0071   -1.4741   -1.7538 C   0  0  0  0  0  0  0  0  0  0  0  0
   -0.1287   -0.7184   -2.4542 C   0  0  0  0  0  0  0  0  0  0  0  0
   -0.2372    0.7407   -2.0048 C   0  0  0  0  0  0  0  0  0  0  0  0
   -1.2645    1.4220   -2.7516 N   0  0  0  0  0  0  0  0  0  0  0  0
   -1.0492    1.3579   -4.1916 C   0  0  0  0  0  0  0  0  0  0  0  0
    0.1274    0.4330   -4.5297 C   0  0  0  0  0  0  0  0  0  0  0  0
    0.0415   -0.8060   -3.8686 O   0  0  0  0  0  0  0  0  0  0  0  0
    2.6190   -3.1620   -0.0894 O   0  0  0  0  0  0  0  0  0  0  0  0
    1.3177   -5.0424    1.4823 C   0  0  0  0  0  0  0  0  0  0  0  0
    0.5323   -6.0908    0.6885 C   0  0  0  0  0  0  0  0  0  0  0  0
   -0.9700   -5.8955    0.8980 C   0  0  0  0  0  0  0  0  0  0  0  0
   -3.6193   -4.9778    1.1990 O   0  0  0  0  0  0  0  0  0  0  0  0
   -4.3204    0.9450   -0.7012 C   0  0  0  0  0  0  0  0  0  0  0  0
   -5.2433    1.6729   -1.4854 C   0  0  0  0  0  0  0  0  0  0  0  0
   -4.8279    2.3261   -2.6390 C   0  0  0  0  0  0  0  0  0  0  0  0
   -3.5111    2.2127   -3.0142 C   0  0  0  0  0  0  0  0  0  0  0  0
   -2.5800    1.4382   -2.2884 C   0  0  0  0  0  0  0  0  0  0  0  0
   -2.9950    0.8033   -1.1256 C   0  0  0  0  0  0  0  0  0  0  0  0
   -1.1948    4.5304    2.6656 F   0  0  0  0  0  0  0  0  0  0  0  0
  -10.8606   -0.9978    0.0614 H   0  0  0  0  0  0  0  0  0  0  0  0
  -10.4352    0.4293   -0.8895 H   0  0  0  0  0  0  0  0  0  0  0  0
  -10.3024   -1.1789   -1.6144 H   0  0  0  0  0  0  0  0  0  0  0  0
   -8.0364   -0.3863   -0.9394 H   0  0  0  0  0  0  0  0  0  0  0  0
   -7.7759   -3.8280   -0.3887 H   0  0  0  0  0  0  0  0  0  0  0  0
   -9.0459   -3.1341   -1.4223 H   0  0  0  0  0  0  0  0  0  0  0  0
   -7.3803   -2.4996   -1.5117 H   0  0  0  0  0  0  0  0  0  0  0  0
  -10.3324    0.7087    3.7310 H   0  0  0  0  0  0  0  0  0  0  0  0
   -8.3140    2.0576    4.3509 H   0  0  0  0  0  0  0  0  0  0  0  0
   -6.4421    2.1823    2.7064 H   0  0  0  0  0  0  0  0  0  0  0  0
   -8.3494    2.3727   -0.4711 H   0  0  0  0  0  0  0  0  0  0  0  0
   -7.2703    3.4751   -1.3460 H   0  0  0  0  0  0  0  0  0  0  0  0
   -8.5870    0.9659   -2.5276 H   0  0  0  0  0  0  0  0  0  0  0  0
   -9.0393    2.6409   -2.8402 H   0  0  0  0  0  0  0  0  0  0  0  0
   -7.4801    2.0271   -3.3903 H   0  0  0  0  0  0  0  0  0  0  0  0
   -3.2765   -0.0143    1.5272 H   0  0  0  0  0  0  0  0  0  0  0  0
   -4.6240    0.4555    2.5663 H   0  0  0  0  0  0  0  0  0  0  0  0
   -6.3096   -1.1133    3.2633 H   0  0  0  0  0  0  0  0  0  0  0  0
   -6.7969   -1.6768    1.6644 H   0  0  0  0  0  0  0  0  0  0  0  0
   -6.1844   -2.8212    2.8472 H   0  0  0  0  0  0  0  0  0  0  0  0
   -3.9381   -1.5346    4.0048 H   0  0  0  0  0  0  0  0  0  0  0  0
   -3.7631   -3.1144    3.2436 H   0  0  0  0  0  0  0  0  0  0  0  0
   -2.6535   -1.8025    2.8264 H   0  0  0  0  0  0  0  0  0  0  0  0
   -5.0843   -3.3412    0.7555 H   0  0  0  0  0  0  0  0  0  0  0  0
   -4.6983   -1.8725   -0.1870 H   0  0  0  0  0  0  0  0  0  0  0  0
   -1.1333   -4.2119   -0.4604 H   0  0  0  0  0  0  0  0  0  0  0  0
   -0.8385   -2.6452    1.5575 H   0  0  0  0  0  0  0  0  0  0  0  0
   -0.3806   -1.8430   -0.1561 H   0  0  0  0  0  0  0  0  0  0  0  0
    1.9977   -0.1952    0.3634 H   0  0  0  0  0  0  0  0  0  0  0  0
    1.8570    1.3574    1.8603 H   0  0  0  0  0  0  0  0  0  0  0  0
    0.8632    0.0085    4.4078 H   0  0  0  0  0  0  0  0  0  0  0  0
    3.0113   -1.2457    4.3170 H   0  0  0  0  0  0  0  0  0  0  0  0
    1.9057   -1.7103    3.0299 H   0  0  0  0  0  0  0  0  0  0  0  0
    3.2817   -0.6599    2.6784 H   0  0  0  0  0  0  0  0  0  0  0  0
    2.8623    1.0322    5.3973 H   0  0  0  0  0  0  0  0  0  0  0  0
    3.4083    1.6010    3.8207 H   0  0  0  0  0  0  0  0  0  0  0  0
    1.9887    2.3221    4.5676 H   0  0  0  0  0  0  0  0  0  0  0  0
   -0.1417    5.1554    0.3747 H   0  0  0  0  0  0  0  0  0  0  0  0
   -1.0965    4.0216   -0.5905 H   0  0  0  0  0  0  0  0  0  0  0  0
   -2.1574    6.3603    1.0807 H   0  0  0  0  0  0  0  0  0  0  0  0
   -2.1265    6.2757   -0.6976 H   0  0  0  0  0  0  0  0  0  0  0  0
   -6.3731    6.1659   -3.8935 H   0  0  0  0  0  0  0  0  0  0  0  0
   -6.5683    7.7066   -4.7641 H   0  0  0  0  0  0  0  0  0  0  0  0
   -6.6725    6.1892   -5.6442 H   0  0  0  0  0  0  0  0  0  0  0  0
   -4.2503    4.7446   -4.6215 H   0  0  0  0  0  0  0  0  0  0  0  0
   -4.9202    5.0080   -6.2451 H   0  0  0  0  0  0  0  0  0  0  0  0
   -3.2629    5.4847   -5.9070 H   0  0  0  0  0  0  0  0  0  0  0  0
   -3.7340    9.4152   -3.2979 H   0  0  0  0  0  0  0  0  0  0  0  0
   -4.5836    9.3381   -4.8494 H   0  0  0  0  0  0  0  0  0  0  0  0
   -5.3983    8.8556   -3.3494 H   0  0  0  0  0  0  0  0  0  0  0  0
   -1.9246    8.1800   -3.9014 H   0  0  0  0  0  0  0  0  0  0  0  0
   -1.9821    6.5285   -4.4978 H   0  0  0  0  0  0  0  0  0  0  0  0
   -2.4202    7.8709   -5.5717 H   0  0  0  0  0  0  0  0  0  0  0  0
   -3.7472    4.8052    2.2825 H   0  0  0  0  0  0  0  0  0  0  0  0
   -4.7481    3.7514    1.2426 H   0  0  0  0  0  0  0  0  0  0  0  0
   -2.7329    2.4908    0.5531 H   0  0  0  0  0  0  0  0  0  0  0  0
   -2.8871    2.4806    2.3135 H   0  0  0  0  0  0  0  0  0  0  0  0
   -0.1840    1.8826    4.7194 H   0  0  0  0  0  0  0  0  0  0  0  0
   -1.4378    2.7640    3.8763 H   0  0  0  0  0  0  0  0  0  0  0  0
   -1.4022    0.9858    3.7857 H   0  0  0  0  0  0  0  0  0  0  0  0
    1.9456   -0.9277   -1.8574 H   0  0  0  0  0  0  0  0  0  0  0  0
    1.1348   -2.4334   -2.2582 H   0  0  0  0  0  0  0  0  0  0  0  0
   -1.0808   -1.2263   -2.2291 H   0  0  0  0  0  0  0  0  0  0  0  0
   -0.4462    0.8111   -0.9415 H   0  0  0  0  0  0  0  0  0  0  0  0
    0.7129    1.2587   -2.1697 H   0  0  0  0  0  0  0  0  0  0  0  0
   -1.9509    0.9731   -4.6807 H   0  0  0  0  0  0  0  0  0  0  0  0
   -0.8355    2.3586   -4.5927 H   0  0  0  0  0  0  0  0  0  0  0  0
    0.1115    0.1910   -5.5947 H   0  0  0  0  0  0  0  0  0  0  0  0
    1.0820    0.9307   -4.3075 H   0  0  0  0  0  0  0  0  0  0  0  0
    2.3802   -5.0735    1.2413 H   0  0  0  0  0  0  0  0  0  0  0  0
    1.1693   -5.1855    2.5547 H   0  0  0  0  0  0  0  0  0  0  0  0
    0.7726   -5.9816   -0.3718 H   0  0  0  0  0  0  0  0  0  0  0  0
    0.8312   -7.0899    1.0046 H   0  0  0  0  0  0  0  0  0  0  0  0
   -1.2359   -6.1076    1.9339 H   0  0  0  0  0  0  0  0  0  0  0  0
   -1.5415   -6.5642    0.2549 H   0  0  0  0  0  0  0  0  0  0  0  0
   -5.5003    2.9456   -3.2110 H   0  0  0  0  0  0  0  0  0  0  0  0
   -3.1685    2.7504   -3.8845 H   0  0  0  0  0  0  0  0  0  0  0  0
   -2.3230    0.2039   -0.5315 H   0  0  0  0  0  0  0  0  0  0  0  0
  1  2  1  0  0  0  0
  2  3  1  0  0  0  0
  3  4  1  0  0  0  0
  2  5  1  0  0  0  0
  5  6  4  0  0  0  0
  6  7  4  0  0  0  0
  7  8  4  0  0  0  0
  8  9  4  0  0  0  0
  5 10  4  0  0  0  0
  9 10  4  0  0  0  0
 10 11  1  0  0  0  0
 11 12  1  0  0  0  0
 12 13  1  0  0  0  0
 13 14  1  0  0  0  0
 11 15  2  0  0  0  0
 15 16  1  0  0  0  0
 16 17  1  0  0  0  0
 17 18  1  0  0  0  0
 17 19  1  0  0  0  0
 17 20  1  0  0  0  0
 20 21  1  0  0  0  0
 21 22  1  0  0  0  0
 22 23  1  0  0  0  0
 23 24  1  0  0  0  0
 24 25  1  0  0  0  0
 25 26  4  0  0  0  0
 26 27  1  0  0  0  0
 27 28  1  0  0  0  0
 28 29  4  0  0  0  0
 29 30  1  0  0  0  0
 30 31  1  0  0  0  0
 31 32  1  0  0  0  0
 31 33  1  0  0  0  0
 30 34  1  0  0  0  0
 34 35  4  0  0  0  0
 35 36  1  0  0  0  0
 36 37  1  0  0  0  0
 37 38  1  0  0  0  0
 38 39  1  0  0  0  0
 39 40  4  0  0  0  0
 40 41  1  0  0  0  0
 41 42  3  0  0  0  0
 42 43  1  0  0  0  0
 43 44  1  0  0  0  0
 44 45  1  0  0  0  0
 44 46  1  0  0  0  0
 43 47  1  0  0  0  0
 43 48  1  0  0  0  0
 40 49  2  0  0  0  0
 39 50  1  0  0  0  0
 36 51  1  0  0  0  0
 50 51  1  0  0  0  0
 35 52  2  0  0  0  0
 34 53  1  0  0  0  0
 29 54  2  0  0  0  0
 27 55  1  0  0  0  0
 55 56  1  0  0  0  0
 56 57  1  0  0  0  0
 57 58  1  0  0  0  0
 58 59  1  0  0  0  0
 59 60  1  0  0  0  0
 56 61  1  0  0  0  0
 60 61  1  0  0  0  0
 26 62  2  0  0  0  0
 25 63  1  0  0  0  0
 63 64  1  0  0  0  0
 23 65  1  0  0  0  0
 64 65  1  0  0  0  0
 22 66  2  0  0  0  0
 15 67  4  0  0  0  0
 12 68  1  0  0  0  0
 67 68  4  0  0  0  0
 68 69  4  0  0  0  0
 69 70  2  0  0  0  0
 58 71  1  0  0  0  0
 70 71  4  0  0  0  0
 67 72  4  0  0  0  0
 71 72  4  0  0  0  0
 36 73  1  0  0  0  0
  1 74  1  0  0  0  0
  1 75  1  0  0  0  0
  1 76  1  0  0  0  0
  2 77  1  0  0  0  0
  4 78  1  0  0  0  0
  4 79  1  0  0  0  0
  4 80  1  0  0  0  0
  7 81  1  0  0  0  0
  8 82  1  0  0  0  0
  9 83  1  0  0  0  0
 13 84  1  0  0  0  0
 13 85  1  0  0  0  0
 14 86  1  0  0  0  0
 14 87  1  0  0  0  0
 14 88  1  0  0  0  0
 16 89  1  0  0  0  0
 16 90  1  0  0  0  0
 18 91  1  0  0  0  0
 18 92  1  0  0  0  0
 18 93  1  0  0  0  0
 19 94  1  0  0  0  0
 19 95  1  0  0  0  0
 19 96  1  0  0  0  0
 20 97  1  0  0  0  0
 20 98  1  0  0  0  0
 23 99  1  0  0  0  0
 24100  1  0  0  0  0
 27101  1  0  0  0  0
 28102  1  0  0  0  0
 30103  1  0  0  0  0
 31104  1  0  0  0  0
 32105  1  0  0  0  0
 32106  1  0  0  0  0
 32107  1  0  0  0  0
 33108  1  0  0  0  0
 33109  1  0  0  0  0
 33110  1  0  0  0  0
 37111  1  0  0  0  0
 37112  1  0  0  0  0
 38113  1  0  0  0  0
 38114  1  0  0  0  0
 45115  1  0  0  0  0
 45116  1  0  0  0  0
 45117  1  0  0  0  0
 46118  1  0  0  0  0
 46119  1  0  0  0  0
 46120  1  0  0  0  0
 47121  1  0  0  0  0
 47122  1  0  0  0  0
 47123  1  0  0  0  0
 48124  1  0  0  0  0
 48125  1  0  0  0  0
 48126  1  0  0  0  0
 50127  1  0  0  0  0
 50128  1  0  0  0  0
 51129  1  0  0  0  0
 51130  1  0  0  0  0
 53131  1  0  0  0  0
 53132  1  0  0  0  0
 53133  1  0  0  0  0
 55134  1  0  0  0  0
 55135  1  0  0  0  0
 56136  1  0  0  0  0
 57137  1  0  0  0  0
 57138  1  0  0  0  0
 59139  1  0  0  0  0
 59140  1  0  0  0  0
 60141  1  0  0  0  0
 60142  1  0  0  0  0
 63143  1  0  0  0  0
 63144  1  0  0  0  0
 64145  1  0  0  0  0
 64146  1  0  0  0  0
 65147  1  0  0  0  0
 65148  1  0  0  0  0
 69149  1  0  0  0  0
 70150  1  0  0  0  0
 72151  1  0  0  0  0
M  END
$$$$
