
     RDKit          3D

151157  0  0  0  0  0  0  0  0999 V2000
    7.1943   27.9533   60.2440 C   0  0  0  0  0  0  0  0  0  0  0  0
    8.3477   27.3636   59.4270 C   0  0  2  0  0  0  0  0  0  0  0  0
    7.8346   26.7068   58.2549 O   0  0  0  0  0  0  0  0  0  0  0  0
    7.5635   27.6049   57.1883 C   0  0  0  0  0  0  0  0  0  0  0  0
    9.1602   26.3579   60.2421 C   0  0  0  0  0  0  0  0  0  0  0  0
    8.4639   25.5791   61.1224 N   0  0  0  0  0  0  0  0  0  0  0  0
    9.1436   24.6612   61.8402 C   0  0  0  0  0  0  0  0  0  0  0  0
   10.5061   24.4625   61.7367 C   0  0  0  0  0  0  0  0  0  0  0  0
   11.2139   25.2512   60.8383 C   0  0  0  0  0  0  0  0  0  0  0  0
   10.5498   26.2171   60.0698 C   0  0  0  0  0  0  0  0  0  0  0  0
   11.3359   27.0100   59.1162 C   0  0  0  0  0  0  0  0  0  0  0  0
   11.3448   26.7525   57.7569 N   0  0  0  0  0  0  0  0  0  0  0  0
   10.6930   25.6274   57.0949 C   0  0  0  0  0  0  0  0  0  0  0  0
   11.6558   24.4809   56.8251 C   0  0  0  0  0  0  0  0  0  0  0  0
   12.2758   28.0161   59.3571 C   0  0  0  0  0  0  0  0  0  0  0  0
   12.7430   28.5075   60.7101 C   0  0  0  0  0  0  0  0  0  0  0  0
   12.0628   29.7712   61.3097 C   0  0  0  0  0  0  0  0  0  0  0  0
   12.4922   29.8640   62.7950 C   0  0  0  0  0  0  0  0  0  0  0  0
   10.5310   29.6878   61.2730 C   0  0  0  0  0  0  0  0  0  0  0  0
   12.4979   31.0639   60.5856 C   0  0  0  0  0  0  0  0  0  0  0  0
   13.9097   31.2717   60.7543 O   0  0  0  0  0  0  0  0  0  0  0  0
   14.3958   32.3831   60.1317 C   0  0  0  0  0  0  0  0  0  0  0  0
   15.9045   32.5022   60.3713 C   0  0  1  0  0  0  0  0  0  0  0  0
   16.4144   33.7015   59.6838 N   0  0  0  0  0  0  0  0  0  0  0  0
   17.8169   33.8076   59.8112 N   0  0  0  0  0  0  0  0  0  0  0  0
   18.7043   33.9629   58.7398 C   0  0  0  0  0  0  0  0  0  0  0  0
   18.1993   33.5838   57.3282 C   0  0  1  0  0  0  0  0  0  0  0  0
   19.0146   34.2708   56.3365 N   0  0  0  0  0  0  0  0  0  0  0  0
   18.7074   35.5125   55.8270 C   0  0  0  0  0  0  0  0  0  0  0  0
   19.7158   35.9743   54.7399 C   0  0  2  0  0  0  0  0  0  0  0  0
   19.6738   37.5030   54.4839 C   0  0  0  0  0  0  0  0  0  0  0  0
   20.5650   37.8951   53.2979 C   0  0  0  0  0  0  0  0  0  0  0  0
   20.1415   38.2792   55.7238 C   0  0  0  0  0  0  0  0  0  0  0  0
   19.4622   35.1368   53.5309 N   0  0  0  0  0  0  0  0  0  0  0  0
   20.0754   33.8718   53.5138 C   0  0  0  0  0  0  0  0  0  0  0  0
   19.7752   32.8978   52.3521 C   0  0  0  0  0  0  0  0  0  0  0  0
   18.4586   32.9108   51.9709 F   0  0  0  0  0  0  0  0  0  0  0  0
   20.0934   31.4589   52.7693 C   0  0  0  0  0  0  0  0  0  0  0  0
   19.9006   30.5081   51.5991 C   0  0  0  0  0  0  0  0  0  0  0  0
   20.6761   30.9322   50.4405 N   0  0  0  0  0  0  0  0  0  0  0  0
   21.1732   29.9400   49.5959 C   0  0  0  0  0  0  0  0  0  0  0  0
   21.8518   30.3399   48.3811 C   0  0  0  0  0  0  0  0  0  0  0  0
   22.4515   30.6579   47.3883 C   0  0  0  0  0  0  0  0  0  0  0  0
   23.2245   31.0386   46.1751 C   0  0  0  0  0  0  0  0  0  0  0  0
   24.0554   29.8801   45.7525 N   0  0  0  0  0  0  0  0  0  0  0  0
   25.0785   29.4866   46.7284 C   0  0  0  0  0  0  0  0  0  0  0  0
   24.6759   30.0143   44.4338 C   0  0  0  0  0  0  0  0  0  0  0  0
   22.1810   31.4080   45.0938 C   0  0  0  0  0  0  0  0  0  0  0  0
   24.0460   32.3066   46.4991 C   0  0  0  0  0  0  0  0  0  0  0  0
   21.0878   28.7407   49.8340 O   0  0  0  0  0  0  0  0  0  0  0  0
   20.4760   32.3116   50.0021 C   0  0  0  0  0  0  0  0  0  0  0  0
   20.6254   33.3022   51.1478 C   0  0  0  0  0  0  0  0  0  0  0  0
   20.9125   33.5685   54.3742 O   0  0  0  0  0  0  0  0  0  0  0  0
   18.2063   35.3576   52.8193 C   0  0  0  0  0  0  0  0  0  0  0  0
   17.7033   36.1411   56.1427 O   0  0  0  0  0  0  0  0  0  0  0  0
   18.3441   32.0605   57.1502 C   0  0  0  0  0  0  0  0  0  0  0  0
   17.3677   31.4195   56.1502 C   0  0  1  0  0  0  0  0  0  0  0  0
   16.0685   30.9655   56.8566 C   0  0  0  0  0  0  0  0  0  0  0  0
   15.1622   30.3531   55.8717 N   0  0  0  0  0  0  0  0  0  0  0  0
   14.8774   31.2695   54.7441 C   0  0  0  0  0  0  0  0  0  0  0  0
   16.2044   31.7202   54.1083 C   0  0  0  0  0  0  0  0  0  0  0  0
   17.0892   32.3219   55.0673 O   0  0  0  0  0  0  0  0  0  0  0  0
   19.8883   34.2705   58.9196 O   0  0  0  0  0  0  0  0  0  0  0  0
   18.2651   34.0119   61.1924 C   0  0  0  0  0  0  0  0  0  0  0  0
   17.7402   32.8781   62.0783 C   0  0  0  0  0  0  0  0  0  0  0  0
   16.2395   32.6319   61.8642 C   0  0  0  0  0  0  0  0  0  0  0  0
   13.7348   33.1287   59.4197 O   0  0  0  0  0  0  0  0  0  0  0  0
   12.7979   28.4165   58.0778 C   0  0  0  0  0  0  0  0  0  0  0  0
   12.1625   27.6525   57.1035 C   0  0  0  0  0  0  0  0  0  0  0  0
   12.4477   27.8078   55.7416 C   0  0  0  0  0  0  0  0  0  0  0  0
   13.4291   28.7354   55.3716 C   0  0  0  0  0  0  0  0  0  0  0  0
   14.1279   29.5157   56.3010 C   0  0  0  0  0  0  0  0  0  0  0  0
   13.7928   29.3360   57.6574 C   0  0  0  0  0  0  0  0  0  0  0  0
    7.5471   28.3695   61.1933 H   0  0  0  0  0  0  0  0  0  0  0  0
    6.6952   28.7555   59.6909 H   0  0  0  0  0  0  0  0  0  0  0  0
    6.4279   27.1993   60.4545 H   0  0  0  0  0  0  0  0  0  0  0  0
    8.9973   28.1908   59.1236 H   0  0  0  0  0  0  0  0  0  0  0  0
    6.7798   28.3155   57.4605 H   0  0  0  0  0  0  0  0  0  0  0  0
    8.4720   28.1380   56.8925 H   0  0  0  0  0  0  0  0  0  0  0  0
    7.2147   27.0199   56.3329 H   0  0  0  0  0  0  0  0  0  0  0  0
    8.5404   24.0684   62.5223 H   0  0  0  0  0  0  0  0  0  0  0  0
   11.0047   23.7087   62.3351 H   0  0  0  0  0  0  0  0  0  0  0  0
   12.2864   25.1082   60.7301 H   0  0  0  0  0  0  0  0  0  0  0  0
    9.8727   25.2664   57.7165 H   0  0  0  0  0  0  0  0  0  0  0  0
   10.2509   25.9980   56.1639 H   0  0  0  0  0  0  0  0  0  0  0  0
   12.1136   24.1241   57.7531 H   0  0  0  0  0  0  0  0  0  0  0  0
   11.1266   23.6437   56.3611 H   0  0  0  0  0  0  0  0  0  0  0  0
   12.4635   24.7842   56.1520 H   0  0  0  0  0  0  0  0  0  0  0  0
   12.6237   27.6815   61.4231 H   0  0  0  0  0  0  0  0  0  0  0  0
   13.8294   28.6665   60.6581 H   0  0  0  0  0  0  0  0  0  0  0  0
   12.0966   29.0198   63.3720 H   0  0  0  0  0  0  0  0  0  0  0  0
   13.5824   29.8522   62.9018 H   0  0  0  0  0  0  0  0  0  0  0  0
   12.1199   30.7852   63.2584 H   0  0  0  0  0  0  0  0  0  0  0  0
   10.0767   30.5277   61.8113 H   0  0  0  0  0  0  0  0  0  0  0  0
   10.1556   29.7295   60.2463 H   0  0  0  0  0  0  0  0  0  0  0  0
   10.1727   28.7680   61.7458 H   0  0  0  0  0  0  0  0  0  0  0  0
   11.9716   31.9260   61.0161 H   0  0  0  0  0  0  0  0  0  0  0  0
   12.2516   31.0133   59.5193 H   0  0  0  0  0  0  0  0  0  0  0  0
   16.3720   31.6095   59.9386 H   0  0  0  0  0  0  0  0  0  0  0  0
   16.0425   33.7984   58.7390 H   0  0  0  0  0  0  0  0  0  0  0  0
   17.1684   33.9149   57.1934 H   0  0  0  0  0  0  0  0  0  0  0  0
   19.9513   33.9136   56.1530 H   0  0  0  0  0  0  0  0  0  0  0  0
   20.7226   35.7464   55.1158 H   0  0  0  0  0  0  0  0  0  0  0  0
   18.6486   37.8276   54.2696 H   0  0  0  0  0  0  0  0  0  0  0  0
   21.6000   37.5718   53.4578 H   0  0  0  0  0  0  0  0  0  0  0  0
   20.2113   37.4480   52.3635 H   0  0  0  0  0  0  0  0  0  0  0  0
   20.5679   38.9811   53.1563 H   0  0  0  0  0  0  0  0  0  0  0  0
   19.5028   38.0801   56.5887 H   0  0  0  0  0  0  0  0  0  0  0  0
   21.1699   38.0135   55.9937 H   0  0  0  0  0  0  0  0  0  0  0  0
   20.1117   39.3577   55.5374 H   0  0  0  0  0  0  0  0  0  0  0  0
   21.1272   31.3796   53.1295 H   0  0  0  0  0  0  0  0  0  0  0  0
   19.4378   31.1532   53.5926 H   0  0  0  0  0  0  0  0  0  0  0  0
   18.8475   30.4676   51.2958 H   0  0  0  0  0  0  0  0  0  0  0  0
   20.1868   29.4958   51.9065 H   0  0  0  0  0  0  0  0  0  0  0  0
   24.6605   29.3220   47.7264 H   0  0  0  0  0  0  0  0  0  0  0  0
   25.5284   28.5308   46.4344 H   0  0  0  0  0  0  0  0  0  0  0  0
   25.8850   30.2230   46.8070 H   0  0  0  0  0  0  0  0  0  0  0  0
   25.3659   30.8622   44.3787 H   0  0  0  0  0  0  0  0  0  0  0  0
   25.2405   29.1081   44.1823 H   0  0  0  0  0  0  0  0  0  0  0  0
   23.9283   30.1150   43.6408 H   0  0  0  0  0  0  0  0  0  0  0  0
   21.4672   32.1514   45.4700 H   0  0  0  0  0  0  0  0  0  0  0  0
   22.6455   31.8414   44.2013 H   0  0  0  0  0  0  0  0  0  0  0  0
   21.5958   30.5326   44.7853 H   0  0  0  0  0  0  0  0  0  0  0  0
   24.7361   32.1513   47.3360 H   0  0  0  0  0  0  0  0  0  0  0  0
   24.6260   32.6490   45.6370 H   0  0  0  0  0  0  0  0  0  0  0  0
   23.3859   33.1328   46.7937 H   0  0  0  0  0  0  0  0  0  0  0  0
   21.1795   32.5800   49.2095 H   0  0  0  0  0  0  0  0  0  0  0  0
   19.4685   32.3716   49.5715 H   0  0  0  0  0  0  0  0  0  0  0  0
   20.3460   34.3001   50.7912 H   0  0  0  0  0  0  0  0  0  0  0  0
   21.6818   33.3564   51.4430 H   0  0  0  0  0  0  0  0  0  0  0  0
   17.4254   34.7375   53.2684 H   0  0  0  0  0  0  0  0  0  0  0  0
   17.9042   36.4056   52.8577 H   0  0  0  0  0  0  0  0  0  0  0  0
   18.3210   35.0977   51.7650 H   0  0  0  0  0  0  0  0  0  0  0  0
   19.3627   31.8462   56.7974 H   0  0  0  0  0  0  0  0  0  0  0  0
   18.2646   31.5377   58.1123 H   0  0  0  0  0  0  0  0  0  0  0  0
   17.8572   30.5306   55.7288 H   0  0  0  0  0  0  0  0  0  0  0  0
   15.5695   31.8225   57.3222 H   0  0  0  0  0  0  0  0  0  0  0  0
   16.3453   30.2443   57.6344 H   0  0  0  0  0  0  0  0  0  0  0  0
   14.2638   30.8129   53.9621 H   0  0  0  0  0  0  0  0  0  0  0  0
   14.3371   32.1438   55.1291 H   0  0  0  0  0  0  0  0  0  0  0  0
   16.0067   32.4643   53.3304 H   0  0  0  0  0  0  0  0  0  0  0  0
   16.7193   30.8739   53.6370 H   0  0  0  0  0  0  0  0  0  0  0  0
   19.3574   34.0517   61.2482 H   0  0  0  0  0  0  0  0  0  0  0  0
   17.8782   34.9815   61.5292 H   0  0  0  0  0  0  0  0  0  0  0  0
   17.9406   33.0986   63.1319 H   0  0  0  0  0  0  0  0  0  0  0  0
   18.2819   31.9557   61.8327 H   0  0  0  0  0  0  0  0  0  0  0  0
   15.6682   33.4581   62.3079 H   0  0  0  0  0  0  0  0  0  0  0  0
   15.9418   31.7250   62.4024 H   0  0  0  0  0  0  0  0  0  0  0  0
   11.9634   27.2009   54.9833 H   0  0  0  0  0  0  0  0  0  0  0  0
   13.6832   28.7878   54.3157 H   0  0  0  0  0  0  0  0  0  0  0  0
   14.3014   29.8999   58.4269 H   0  0  0  0  0  0  0  0  0  0  0  0
 66 23  1  0
 66 65  1  0
 24 23  1  0
 24 25  1  0
 63 26  2  0
 23 22  1  0
 25 64  1  0
 25 26  1  0
 50 41  2  0
 64 65  1  0
 28 27  1  0
 28 29  1  0
 53 35  2  0
 34 30  1  0
 34 35  1  0
 34 54  1  0
 55 29  2  0
 26 27  1  0
 40 39  1  0
 40 41  1  0
 40 51  1  0
 62 57  1  0
 62 61  1  0
 27 56  1  0
 45 44  1  0
 45 46  1  0
 45 47  1  0
  3  2  1  0
  3  4  1  0
 29 30  1  0
 59 60  1  0
 59 72  1  0
 59 58  1  0
 21 20  1  0
 21 22  1  0
 30 31  1  0
 12 69  1  0
 12 13  1  0
 12 11  1  0
 67 22  2  0
 35 36  1  0
  6  5  2  0
  6  7  1  0
 36 38  1  0
 36 52  1  0
 36 37  1  0
 38 39  1  0
 41 42  1  0
 43 44  1  0
 44 48  1  0
 44 49  1  0
 51 52  1  0
 31 32  1  0
 31 33  1  0
 56 57  1  0
 57 58  1  0
 61 60  1  0
 72 73  2  0
 72 71  1  0
 73 68  1  0
 68 69  2  0
 68 15  1  0
 69 70  1  0
 70 71  2  0
 13 14  1  0
 11 10  1  0
 11 15  2  0
 10  5  1  0
 10  9  2  0
  5  2  1  0
  2  1  1  0
  7  8  2  0
  8  9  1  0
 15 16  1  0
 16 17  1  0
 17 18  1  0
 17 19  1  0
 17 20  1  0
 42 43  3  0
  1 74  1  0
  1 75  1  0
  1 76  1  0
  2 77  1  6
  4 78  1  0
  4 79  1  0
  4 80  1  0
  7 81  1  0
  8 82  1  0
  9 83  1  0
 13 84  1  0
 13 85  1  0
 14 86  1  0
 14 87  1  0
 14 88  1  0
 16 89  1  0
 16 90  1  0
 18 91  1  0
 18 92  1  0
 18 93  1  0
 19 94  1  0
 19 95  1  0
 19 96  1  0
 20 97  1  0
 20 98  1  0
 23 99  1  6
 24100  1  0
 27101  1  1
 28102  1  0
 30103  1  1
 31104  1  0
 32105  1  0
 32106  1  0
 32107  1  0
 33108  1  0
 33109  1  0
 33110  1  0
 38111  1  0
 38112  1  0
 39113  1  0
 39114  1  0
 46115  1  0
 46116  1  0
 46117  1  0
 47118  1  0
 47119  1  0
 47120  1  0
 48121  1  0
 48122  1  0
 48123  1  0
 49124  1  0
 49125  1  0
 49126  1  0
 51127  1  0
 51128  1  0
 52129  1  0
 52130  1  0
 54131  1  0
 54132  1  0
 54133  1  0
 56134  1  0
 56135  1  0
 57136  1  6
 58137  1  0
 58138  1  0
 60139  1  0
 60140  1  0
 61141  1  0
 61142  1  0
 64143  1  0
 64144  1  0
 65145  1  0
 65146  1  0
 66147  1  0
 66148  1  0
 70149  1  0
 71150  1  0
 73151  1  0
M  END
$$$$
