mol_ETKDG1_8
     RDKit          3D

151157  0  0  0  0  0  0  0  0999 V2000
    1.7962    7.0277   -8.6596 C   0  0  0  0  0  0  0  0  0  0  0  0
    1.8200    5.5567   -8.2316 C   0  0  2  0  0  0  0  0  0  0  0  0
    3.0159    4.9240   -8.7110 O   0  0  0  0  0  0  0  0  0  0  0  0
    4.1485    5.1742   -7.8916 C   0  0  0  0  0  0  0  0  0  0  0  0
    0.6135    4.7954   -8.7764 C   0  0  0  0  0  0  0  0  0  0  0  0
    0.1707    5.1591  -10.0181 N   0  0  0  0  0  0  0  0  0  0  0  0
   -0.8862    4.5036  -10.5400 C   0  0  0  0  0  0  0  0  0  0  0  0
   -1.5589    3.4931   -9.8833 C   0  0  0  0  0  0  0  0  0  0  0  0
   -1.1148    3.1289   -8.6179 C   0  0  0  0  0  0  0  0  0  0  0  0
   -0.0046    3.7677   -8.0453 C   0  0  0  0  0  0  0  0  0  0  0  0
    0.4276    3.3558   -6.7032 C   0  0  0  0  0  0  0  0  0  0  0  0
   -0.1830    3.8041   -5.5473 N   0  0  0  0  0  0  0  0  0  0  0  0
   -1.3365    4.6950   -5.4773 C   0  0  0  0  0  0  0  0  0  0  0  0
   -2.6270    3.9514   -5.1871 C   0  0  0  0  0  0  0  0  0  0  0  0
    1.4725    2.5095   -6.3266 C   0  0  0  0  0  0  0  0  0  0  0  0
    2.4074    1.7891   -7.2731 C   0  0  0  0  0  0  0  0  0  0  0  0
    2.0687    0.3099   -7.6248 C   0  0  0  0  0  0  0  0  0  0  0  0
    2.9573   -0.0921   -8.8280 C   0  0  0  0  0  0  0  0  0  0  0  0
    0.6018    0.1208   -8.0474 C   0  0  0  0  0  0  0  0  0  0  0  0
    2.3649   -0.6466   -6.4503 C   0  0  0  0  0  0  0  0  0  0  0  0
    3.7650   -0.6020   -6.1362 O   0  0  0  0  0  0  0  0  0  0  0  0
    4.1360   -1.3749   -5.0797 C   0  0  0  0  0  0  0  0  0  0  0  0
    5.6255   -1.1827   -4.7889 C   0  0  1  0  0  0  0  0  0  0  0  0
    6.0258   -2.0684   -3.6854 N   0  0  0  0  0  0  0  0  0  0  0  0
    7.3502   -1.8020   -3.2775 N   0  0  0  0  0  0  0  0  0  0  0  0
    7.7375   -1.6275   -1.9431 C   0  0  0  0  0  0  0  0  0  0  0  0
    6.6464   -1.2137   -0.9233 C   0  0  1  0  0  0  0  0  0  0  0  0
    6.9906   -1.7732    0.3815 N   0  0  0  0  0  0  0  0  0  0  0  0
    6.7903   -3.1173    0.6249 C   0  0  0  0  0  0  0  0  0  0  0  0
    7.1946   -3.5768    2.0441 C   0  0  2  0  0  0  0  0  0  0  0  0
    7.7851   -5.0112    2.0390 C   0  0  0  0  0  0  0  0  0  0  0  0
    8.0609   -5.5045    3.4622 C   0  0  0  0  0  0  0  0  0  0  0  0
    9.0941   -5.0488    1.2360 C   0  0  0  0  0  0  0  0  0  0  0  0
    5.9955   -3.4300    2.9142 N   0  0  0  0  0  0  0  0  0  0  0  0
    5.9282   -2.2755    3.7041 C   0  0  0  0  0  0  0  0  0  0  0  0
    4.6428   -1.9993    4.5237 C   0  0  0  0  0  0  0  0  0  0  0  0
    4.5412   -2.9674    5.7165 C   0  0  0  0  0  0  0  0  0  0  0  0
    3.3137   -2.6350    6.5600 C   0  0  0  0  0  0  0  0  0  0  0  0
    3.3900   -1.2468    6.9904 N   0  0  0  0  0  0  0  0  0  0  0  0
    3.8042   -0.9793    8.2926 C   0  0  0  0  0  0  0  0  0  0  0  0
    4.2018    0.3703    8.6257 C   0  0  0  0  0  0  0  0  0  0  0  0
    4.6278    1.4617    8.8891 C   0  0  0  0  0  0  0  0  0  0  0  0
    5.2104    2.7975    9.1640 C   0  0  0  0  0  0  0  0  0  0  0  0
    6.6481    2.8685    8.7804 N   0  0  0  0  0  0  0  0  0  0  0  0
    6.9022    2.6690    7.3473 C   0  0  0  0  0  0  0  0  0  0  0  0
    7.5189    1.9708    9.5501 C   0  0  0  0  0  0  0  0  0  0  0  0
    5.0292    3.1170   10.6666 C   0  0  0  0  0  0  0  0  0  0  0  0
    4.3938    3.8575    8.3886 C   0  0  0  0  0  0  0  0  0  0  0  0
    3.9078   -1.8344    9.1647 O   0  0  0  0  0  0  0  0  0  0  0  0
    3.4250   -0.2770    5.9007 C   0  0  0  0  0  0  0  0  0  0  0  0
    4.6376   -0.5394    5.0176 C   0  0  0  0  0  0  0  0  0  0  0  0
    6.9015   -1.5179    3.8030 O   0  0  0  0  0  0  0  0  0  0  0  0
    4.7906   -4.1492    2.5001 C   0  0  0  0  0  0  0  0  0  0  0  0
    6.2251   -3.8554   -0.1830 O   0  0  0  0  0  0  0  0  0  0  0  0
    6.5845    0.3237   -0.8830 C   0  0  0  0  0  0  0  0  0  0  0  0
    5.1938    0.9123   -0.6051 C   0  0  1  0  0  0  0  0  0  0  0  0
    4.3213    1.0012   -1.8850 C   0  0  0  0  0  0  0  0  0  0  0  0
    3.0192    1.5966   -1.5379 N   0  0  0  0  0  0  0  0  0  0  0  0
    2.3388    0.8238   -0.4675 C   0  0  0  0  0  0  0  0  0  0  0  0
    3.2656    0.7122    0.7544 C   0  0  0  0  0  0  0  0  0  0  0  0
    4.5387    0.1407    0.4191 O   0  0  0  0  0  0  0  0  0  0  0  0
    8.9238   -1.6818   -1.5936 O   0  0  0  0  0  0  0  0  0  0  0  0
    8.3448   -2.1201   -4.3089 C   0  0  0  0  0  0  0  0  0  0  0  0
    8.0039   -1.3966   -5.6188 C   0  0  0  0  0  0  0  0  0  0  0  0
    6.5179   -1.5257   -5.9878 C   0  0  0  0  0  0  0  0  0  0  0  0
    3.3663   -2.0411   -4.3995 O   0  0  0  0  0  0  0  0  0  0  0  0
    1.5346    2.5296   -4.8872 C   0  0  0  0  0  0  0  0  0  0  0  0
    0.4865    3.3307   -4.4378 C   0  0  0  0  0  0  0  0  0  0  0  0
    0.2602    3.5571   -3.0754 C   0  0  0  0  0  0  0  0  0  0  0  0
    1.1204    2.9540   -2.1527 C   0  0  0  0  0  0  0  0  0  0  0  0
    2.1891    2.1299   -2.5312 C   0  0  0  0  0  0  0  0  0  0  0  0
    2.3957    1.9485   -3.9138 C   0  0  0  0  0  0  0  0  0  0  0  0
    3.5181   -2.1499    3.7523 F   0  0  0  0  0  0  0  0  0  0  0  0
    0.8532    7.5098   -8.3716 H   0  0  0  0  0  0  0  0  0  0  0  0
    2.6139    7.5867   -8.1924 H   0  0  0  0  0  0  0  0  0  0  0  0
    1.9278    7.1371   -9.7425 H   0  0  0  0  0  0  0  0  0  0  0  0
    1.7977    5.5346   -7.1356 H   0  0  0  0  0  0  0  0  0  0  0  0
    3.9731    4.8273   -6.8677 H   0  0  0  0  0  0  0  0  0  0  0  0
    4.9952    4.6150   -8.3035 H   0  0  0  0  0  0  0  0  0  0  0  0
    4.4094    6.2355   -7.8938 H   0  0  0  0  0  0  0  0  0  0  0  0
   -1.1876    4.8274  -11.5317 H   0  0  0  0  0  0  0  0  0  0  0  0
   -2.4052    2.9979  -10.3454 H   0  0  0  0  0  0  0  0  0  0  0  0
   -1.6280    2.3339   -8.0816 H   0  0  0  0  0  0  0  0  0  0  0  0
   -1.1325    5.4411   -4.7014 H   0  0  0  0  0  0  0  0  0  0  0  0
   -1.4177    5.2459   -6.4191 H   0  0  0  0  0  0  0  0  0  0  0  0
   -2.5849    3.4330   -4.2255 H   0  0  0  0  0  0  0  0  0  0  0  0
   -3.4683    4.6522   -5.1551 H   0  0  0  0  0  0  0  0  0  0  0  0
   -2.8378    3.2018   -5.9575 H   0  0  0  0  0  0  0  0  0  0  0  0
    2.4402    2.3588   -8.2098 H   0  0  0  0  0  0  0  0  0  0  0  0
    3.4259    1.8576   -6.8725 H   0  0  0  0  0  0  0  0  0  0  0  0
    4.0172    0.0908   -8.6243 H   0  0  0  0  0  0  0  0  0  0  0  0
    2.8412   -1.1556   -9.0664 H   0  0  0  0  0  0  0  0  0  0  0  0
    2.6911    0.4768   -9.7251 H   0  0  0  0  0  0  0  0  0  0  0  0
   -0.0916    0.3811   -7.2427 H   0  0  0  0  0  0  0  0  0  0  0  0
    0.3651    0.7278   -8.9254 H   0  0  0  0  0  0  0  0  0  0  0  0
    0.4036   -0.9224   -8.3171 H   0  0  0  0  0  0  0  0  0  0  0  0
    1.7716   -0.3766   -5.5703 H   0  0  0  0  0  0  0  0  0  0  0  0
    2.1079   -1.6755   -6.7307 H   0  0  0  0  0  0  0  0  0  0  0  0
    5.7547   -0.1352   -4.4863 H   0  0  0  0  0  0  0  0  0  0  0  0
    5.3206   -2.1208   -2.9500 H   0  0  0  0  0  0  0  0  0  0  0  0
    5.6779   -1.6368   -1.1935 H   0  0  0  0  0  0  0  0  0  0  0  0
    7.6798   -1.2881    0.9512 H   0  0  0  0  0  0  0  0  0  0  0  0
    7.9888   -2.9082    2.3985 H   0  0  0  0  0  0  0  0  0  0  0  0
    7.0913   -5.7105    1.5610 H   0  0  0  0  0  0  0  0  0  0  0  0
    7.1340   -5.5878    4.0395 H   0  0  0  0  0  0  0  0  0  0  0  0
    8.5251   -6.4963    3.4463 H   0  0  0  0  0  0  0  0  0  0  0  0
    8.7339   -4.8247    3.9943 H   0  0  0  0  0  0  0  0  0  0  0  0
    9.5616   -6.0391    1.2917 H   0  0  0  0  0  0  0  0  0  0  0  0
    8.9186   -4.8309    0.1773 H   0  0  0  0  0  0  0  0  0  0  0  0
    9.8166   -4.3161    1.6157 H   0  0  0  0  0  0  0  0  0  0  0  0
    4.4723   -4.0090    5.3874 H   0  0  0  0  0  0  0  0  0  0  0  0
    5.4491   -2.8933    6.3296 H   0  0  0  0  0  0  0  0  0  0  0  0
    2.3938   -2.7603    5.9783 H   0  0  0  0  0  0  0  0  0  0  0  0
    3.2566   -3.3120    7.4183 H   0  0  0  0  0  0  0  0  0  0  0  0
    6.5919    1.6797    6.9950 H   0  0  0  0  0  0  0  0  0  0  0  0
    6.4074    3.4293    6.7363 H   0  0  0  0  0  0  0  0  0  0  0  0
    7.9715    2.7774    7.1309 H   0  0  0  0  0  0  0  0  0  0  0  0
    7.4920    2.1979   10.6196 H   0  0  0  0  0  0  0  0  0  0  0  0
    7.2707    0.9124    9.4070 H   0  0  0  0  0  0  0  0  0  0  0  0
    8.5671    2.1081    9.2537 H   0  0  0  0  0  0  0  0  0  0  0  0
    5.4330    2.3290   11.3135 H   0  0  0  0  0  0  0  0  0  0  0  0
    5.5200    4.0626   10.9322 H   0  0  0  0  0  0  0  0  0  0  0  0
    3.9675    3.2125   10.9302 H   0  0  0  0  0  0  0  0  0  0  0  0
    3.3680    3.9395    8.7781 H   0  0  0  0  0  0  0  0  0  0  0  0
    4.8532    4.8518    8.4709 H   0  0  0  0  0  0  0  0  0  0  0  0
    4.2947    3.6122    7.3239 H   0  0  0  0  0  0  0  0  0  0  0  0
    2.4974   -0.3909    5.3260 H   0  0  0  0  0  0  0  0  0  0  0  0
    3.4415    0.7507    6.2767 H   0  0  0  0  0  0  0  0  0  0  0  0
    5.5506   -0.3258    5.5872 H   0  0  0  0  0  0  0  0  0  0  0  0
    4.6147    0.1467    4.1629 H   0  0  0  0  0  0  0  0  0  0  0  0
    4.1267   -4.3307    3.3434 H   0  0  0  0  0  0  0  0  0  0  0  0
    4.2554   -3.5496    1.7575 H   0  0  0  0  0  0  0  0  0  0  0  0
    5.0475   -5.1232    2.0760 H   0  0  0  0  0  0  0  0  0  0  0  0
    7.2575    0.6779   -0.0913 H   0  0  0  0  0  0  0  0  0  0  0  0
    6.9678    0.7613   -1.8137 H   0  0  0  0  0  0  0  0  0  0  0  0
    5.3371    1.9305   -0.2171 H   0  0  0  0  0  0  0  0  0  0  0  0
    4.8472    1.6184   -2.6220 H   0  0  0  0  0  0  0  0  0  0  0  0
    4.1591    0.0018   -2.3044 H   0  0  0  0  0  0  0  0  0  0  0  0
    1.4007    1.2821   -0.1395 H   0  0  0  0  0  0  0  0  0  0  0  0
    2.1067   -0.1782   -0.8496 H   0  0  0  0  0  0  0  0  0  0  0  0
    3.4302    1.6964    1.2110 H   0  0  0  0  0  0  0  0  0  0  0  0
    2.8048    0.0681    1.5113 H   0  0  0  0  0  0  0  0  0  0  0  0
    9.3491   -1.8374   -3.9795 H   0  0  0  0  0  0  0  0  0  0  0  0
    8.3373   -3.2068   -4.4511 H   0  0  0  0  0  0  0  0  0  0  0  0
    8.2407   -0.3310   -5.5031 H   0  0  0  0  0  0  0  0  0  0  0  0
    8.6305   -1.7769   -6.4312 H   0  0  0  0  0  0  0  0  0  0  0  0
    6.3134   -2.5494   -6.3248 H   0  0  0  0  0  0  0  0  0  0  0  0
    6.2972   -0.8694   -6.8361 H   0  0  0  0  0  0  0  0  0  0  0  0
   -0.5461    4.1910   -2.7237 H   0  0  0  0  0  0  0  0  0  0  0  0
    0.9583    3.1781   -1.1011 H   0  0  0  0  0  0  0  0  0  0  0  0
    3.2176    1.3422   -4.2693 H   0  0  0  0  0  0  0  0  0  0  0  0
  1  2  1  0
  2  3  1  0
  2  5  1  0
  3  4  1  0
  5  6  2  0
  5 10  1  0
  6  7  1  0
  7  8  2  0
  8  9  1  0
  9 10  2  0
 10 11  1  0
 11 12  1  0
 11 15  2  0
 12 13  1  0
 12 68  1  0
 13 14  1  0
 15 16  1  0
 15 67  1  0
 16 17  1  0
 17 18  1  0
 17 19  1  0
 17 20  1  0
 20 21  1  0
 21 22  1  0
 22 23  1  0
 22 66  2  0
 23 24  1  0
 23 65  1  0
 24 25  1  0
 25 26  1  0
 25 63  1  0
 26 27  1  0
 26 62  2  0
 27 28  1  0
 27 55  1  0
 28 29  1  0
 29 30  1  0
 29 54  2  0
 30 31  1  0
 30 34  1  0
 31 32  1  0
 31 33  1  0
 34 35  1  0
 34 53  1  0
 35 36  1  0
 35 52  2  0
 36 37  1  0
 36 51  1  0
 36 73  1  0
 37 38  1  0
 38 39  1  0
 39 40  1  0
 39 50  1  0
 40 41  1  0
 40 49  2  0
 42 43  1  0
 43 44  1  0
 43 47  1  0
 43 48  1  0
 44 45  1  0
 44 46  1  0
 50 51  1  0
 55 56  1  0
 56 57  1  0
 56 61  1  0
 57 58  1  0
 58 59  1  0
 58 71  1  0
 59 60  1  0
 60 61  1  0
 63 64  1  0
 64 65  1  0
 67 68  2  0
 67 72  1  0
 68 69  1  0
 69 70  2  0
 70 71  1  0
 71 72  2  0
  1 74  1  0
  1 75  1  0
  1 76  1  0
  2 77  1  1
  4 78  1  0
  4 79  1  0
  4 80  1  0
  7 81  1  0
  8 82  1  0
  9 83  1  0
 13 84  1  0
 13 85  1  0
 14 86  1  0
 14 87  1  0
 14 88  1  0
 16 89  1  0
 16 90  1  0
 18 91  1  0
 18 92  1  0
 18 93  1  0
 19 94  1  0
 19 95  1  0
 19 96  1  0
 20 97  1  0
 20 98  1  0
 23 99  1  1
 24100  1  0
 27101  1  6
 28102  1  0
 30103  1  1
 31104  1  0
 32105  1  0
 32106  1  0
 32107  1  0
 33108  1  0
 33109  1  0
 33110  1  0
 37111  1  0
 37112  1  0
 38113  1  0
 38114  1  0
 45115  1  0
 45116  1  0
 45117  1  0
 46118  1  0
 46119  1  0
 46120  1  0
 47121  1  0
 47122  1  0
 47123  1  0
 48124  1  0
 48125  1  0
 48126  1  0
 50127  1  0
 50128  1  0
 51129  1  0
 51130  1  0
 53131  1  0
 53132  1  0
 53133  1  0
 55134  1  0
 55135  1  0
 56136  1  1
 57137  1  0
 57138  1  0
 59139  1  0
 59140  1  0
 60141  1  0
 60142  1  0
 63143  1  0
 63144  1  0
 64145  1  0
 64146  1  0
 65147  1  0
 65148  1  0
 69149  1  0
 70150  1  0
 72151  1  0
 41 42  3  0
M  END
$$$$
