mol_bioactive_1
     RDKit          3D

151157  0  0  0  0  0  0  0  0999 V2000
    2.3024    7.3087   -8.4379 C   0  0  0  0  0  0  0  0  0  0  0  0
    2.1523    5.8547   -7.9766 C   0  0  2  0  0  0  0  0  0  0  0  0
    3.3982    5.1649   -8.1590 O   0  0  0  0  0  0  0  0  0  0  0  0
    4.3019    5.3606   -7.0814 C   0  0  0  0  0  0  0  0  0  0  0  0
    1.0561    5.1180   -8.7443 C   0  0  0  0  0  0  0  0  0  0  0  0
    0.7547    5.5861   -9.9930 N   0  0  0  0  0  0  0  0  0  0  0  0
   -0.2215    4.9652  -10.6889 C   0  0  0  0  0  0  0  0  0  0  0  0
   -0.9433    3.8934  -10.2051 C   0  0  0  0  0  0  0  0  0  0  0  0
   -0.6378    3.4200   -8.9348 C   0  0  0  0  0  0  0  0  0  0  0  0
    0.3832    4.0168   -8.1841 C   0  0  0  0  0  0  0  0  0  0  0  0
    0.6756    3.4954   -6.8427 C   0  0  0  0  0  0  0  0  0  0  0  0
   -0.0322    3.8723   -5.7197 N   0  0  0  0  0  0  0  0  0  0  0  0
   -1.1759    4.7770   -5.6957 C   0  0  0  0  0  0  0  0  0  0  0  0
   -2.4988    4.0340   -5.6179 C   0  0  0  0  0  0  0  0  0  0  0  0
    1.6642    2.5980   -6.4355 C   0  0  0  0  0  0  0  0  0  0  0  0
    2.6635    1.9159   -7.3436 C   0  0  0  0  0  0  0  0  0  0  0  0
    2.3375    0.4633   -7.8018 C   0  0  0  0  0  0  0  0  0  0  0  0
    3.3008    0.1163   -8.9628 C   0  0  0  0  0  0  0  0  0  0  0  0
    0.9023    0.3176   -8.3311 C   0  0  0  0  0  0  0  0  0  0  0  0
    2.5434   -0.5600   -6.6663 C   0  0  0  0  0  0  0  0  0  0  0  0
    3.9125   -0.5183   -6.2346 O   0  0  0  0  0  0  0  0  0  0  0  0
    4.2186   -1.3583   -5.2074 C   0  0  0  0  0  0  0  0  0  0  0  0
    5.6761   -1.1491   -4.7916 C   0  0  1  0  0  0  0  0  0  0  0  0
    6.0109   -2.0687   -3.6941 N   0  0  0  0  0  0  0  0  0  0  0  0
    7.3027   -1.8015   -3.1901 N   0  0  0  0  0  0  0  0  0  0  0  0
    7.6108   -1.7078   -1.8266 C   0  0  0  0  0  0  0  0  0  0  0  0
    6.4540   -1.3997   -0.8407 C   0  0  1  0  0  0  0  0  0  0  0  0
    6.7808   -2.0170    0.4420 N   0  0  0  0  0  0  0  0  0  0  0  0
    6.7415   -3.3877    0.5884 C   0  0  0  0  0  0  0  0  0  0  0  0
    7.2362   -3.8866    1.9675 C   0  0  2  0  0  0  0  0  0  0  0  0
    7.9283   -5.2713    1.8679 C   0  0  0  0  0  0  0  0  0  0  0  0
    8.2693   -5.8269    3.2547 C   0  0  0  0  0  0  0  0  0  0  0  0
    9.2219   -5.1672    1.0446 C   0  0  0  0  0  0  0  0  0  0  0  0
    6.0705   -3.8403    2.8855 N   0  0  0  0  0  0  0  0  0  0  0  0
    5.8479   -2.6111    3.5273 C   0  0  0  0  0  0  0  0  0  0  0  0
    4.5878   -2.4449    4.4065 C   0  0  0  0  0  0  0  0  0  0  0  0
    4.7904   -3.1851    5.7399 C   0  0  0  0  0  0  0  0  0  0  0  0
    3.6186   -2.9293    6.6846 C   0  0  0  0  0  0  0  0  0  0  0  0
    3.4200   -1.4951    6.8404 N   0  0  0  0  0  0  0  0  0  0  0  0
    3.8841   -0.8749    7.9963 C   0  0  0  0  0  0  0  0  0  0  0  0
    3.9806    0.5680    8.0034 C   0  0  0  0  0  0  0  0  0  0  0  0
    4.1169    1.7623    7.9621 C   0  0  0  0  0  0  0  0  0  0  0  0
    4.3414    3.2289    7.8659 C   0  0  0  0  0  0  0  0  0  0  0  0
    5.7560    3.4693    7.4708 N   0  0  0  0  0  0  0  0  0  0  0  0
    6.1116    2.9552    6.1437 C   0  0  0  0  0  0  0  0  0  0  0  0
    6.1994    4.8604    7.5789 C   0  0  0  0  0  0  0  0  0  0  0  0
    4.0411    3.8054    9.2707 C   0  0  0  0  0  0  0  0  0  0  0  0
    3.3159    3.8179    6.8745 C   0  0  0  0  0  0  0  0  0  0  0  0
    4.2471   -1.4836    8.9969 O   0  0  0  0  0  0  0  0  0  0  0  0
    3.1275   -0.7881    5.5986 C   0  0  0  0  0  0  0  0  0  0  0  0
    4.2965   -0.9517    4.6375 C   0  0  0  0  0  0  0  0  0  0  0  0
    6.6804   -1.6990    3.4512 O   0  0  0  0  0  0  0  0  0  0  0  0
    4.9629   -4.7527    2.6022 C   0  0  0  0  0  0  0  0  0  0  0  0
    6.2666   -4.1334   -0.2660 O   0  0  0  0  0  0  0  0  0  0  0  0
    6.3282    0.1314   -0.7191 C   0  0  0  0  0  0  0  0  0  0  0  0
    4.9012    0.6654   -0.5249 C   0  0  1  0  0  0  0  0  0  0  0  0
    4.1547    0.8478   -1.8725 C   0  0  0  0  0  0  0  0  0  0  0  0
    2.8137    1.3950   -1.6040 N   0  0  0  0  0  0  0  0  0  0  0  0
    2.0502    0.5231   -0.6784 C   0  0  0  0  0  0  0  0  0  0  0  0
    2.8581    0.3240    0.6160 C   0  0  0  0  0  0  0  0  0  0  0  0
    4.1710   -0.1988    0.3620 O   0  0  0  0  0  0  0  0  0  0  0  0
    8.7779   -1.7561   -1.4202 O   0  0  0  0  0  0  0  0  0  0  0  0
    8.3694   -2.0572   -4.1643 C   0  0  0  0  0  0  0  0  0  0  0  0
    8.1088   -1.2778   -5.4571 C   0  0  0  0  0  0  0  0  0  0  0  0
    6.6575   -1.4211   -5.9369 C   0  0  0  0  0  0  0  0  0  0  0  0
    3.4187   -2.0920   -4.6395 O   0  0  0  0  0  0  0  0  0  0  0  0
    1.6095    2.5333   -4.9980 C   0  0  0  0  0  0  0  0  0  0  0  0
    0.5343    3.3195   -4.5883 C   0  0  0  0  0  0  0  0  0  0  0  0
    0.1935    3.4605   -3.2385 C   0  0  0  0  0  0  0  0  0  0  0  0
    0.9738    2.7953   -2.2869 C   0  0  0  0  0  0  0  0  0  0  0  0
    2.0705    1.9927   -2.6273 C   0  0  0  0  0  0  0  0  0  0  0  0
    2.3855    1.8883   -3.9959 C   0  0  0  0  0  0  0  0  0  0  0  0
    3.4667   -2.9612    3.8043 F   0  0  0  0  0  0  0  0  0  0  0  0
    2.9977    7.8534   -7.7922 H   0  0  0  0  0  0  0  0  0  0  0  0
    2.7154    7.3640   -9.4519 H   0  0  0  0  0  0  0  0  0  0  0  0
    1.3441    7.8377   -8.4195 H   0  0  0  0  0  0  0  0  0  0  0  0
    1.8789    5.8760   -6.9141 H   0  0  0  0  0  0  0  0  0  0  0  0
    3.8717    4.9976   -6.1405 H   0  0  0  0  0  0  0  0  0  0  0  0
    5.2091    4.7872   -7.2879 H   0  0  0  0  0  0  0  0  0  0  0  0
    4.5787    6.4147   -6.9854 H   0  0  0  0  0  0  0  0  0  0  0  0
   -0.4135    5.3710  -11.6783 H   0  0  0  0  0  0  0  0  0  0  0  0
   -1.7211    3.4314  -10.8025 H   0  0  0  0  0  0  0  0  0  0  0  0
   -1.1908    2.5762   -8.5307 H   0  0  0  0  0  0  0  0  0  0  0  0
   -1.0557    5.4474   -4.8380 H   0  0  0  0  0  0  0  0  0  0  0  0
   -1.1475    5.4095   -6.5875 H   0  0  0  0  0  0  0  0  0  0  0  0
   -2.5745    3.4512   -4.6949 H   0  0  0  0  0  0  0  0  0  0  0  0
   -3.3318    4.7438   -5.6393 H   0  0  0  0  0  0  0  0  0  0  0  0
   -2.6184    3.3422   -6.4589 H   0  0  0  0  0  0  0  0  0  0  0  0
    2.7819    2.5387   -8.2406 H   0  0  0  0  0  0  0  0  0  0  0  0
    3.6482    1.9437   -6.8563 H   0  0  0  0  0  0  0  0  0  0  0  0
    4.3506    0.2060   -8.6614 H   0  0  0  0  0  0  0  0  0  0  0  0
    3.1403   -0.9087   -9.3201 H   0  0  0  0  0  0  0  0  0  0  0  0
    3.1473    0.7888   -9.8165 H   0  0  0  0  0  0  0  0  0  0  0  0
    0.1586    0.5249   -7.5544 H   0  0  0  0  0  0  0  0  0  0  0  0
    0.7242    0.9899   -9.1762 H   0  0  0  0  0  0  0  0  0  0  0  0
    0.7148   -0.7025   -8.6893 H   0  0  0  0  0  0  0  0  0  0  0  0
    1.8779   -0.3464   -5.8232 H   0  0  0  0  0  0  0  0  0  0  0  0
    2.3249   -1.5739   -7.0253 H   0  0  0  0  0  0  0  0  0  0  0  0
    5.7605   -0.1134   -4.4382 H   0  0  0  0  0  0  0  0  0  0  0  0
    5.2628   -2.1392   -3.0065 H   0  0  0  0  0  0  0  0  0  0  0  0
    5.5211   -1.8538   -1.1746 H   0  0  0  0  0  0  0  0  0  0  0  0
    7.2699   -1.4761    1.1490 H   0  0  0  0  0  0  0  0  0  0  0  0
    7.9982   -3.1823    2.3252 H   0  0  0  0  0  0  0  0  0  0  0  0
    7.2781   -5.9917    1.3572 H   0  0  0  0  0  0  0  0  0  0  0  0
    7.3654   -6.0327    3.8368 H   0  0  0  0  0  0  0  0  0  0  0  0
    8.8246   -6.7686    3.1727 H   0  0  0  0  0  0  0  0  0  0  0  0
    8.8863   -5.1209    3.8229 H   0  0  0  0  0  0  0  0  0  0  0  0
    9.7018   -6.1470    0.9516 H   0  0  0  0  0  0  0  0  0  0  0  0
    9.0250   -4.8010    0.0328 H   0  0  0  0  0  0  0  0  0  0  0  0
    9.9383   -4.4866    1.5187 H   0  0  0  0  0  0  0  0  0  0  0  0
    4.8881   -4.2646    5.5824 H   0  0  0  0  0  0  0  0  0  0  0  0
    5.7240   -2.8482    6.2096 H   0  0  0  0  0  0  0  0  0  0  0  0
    2.6940   -3.3579    6.2788 H   0  0  0  0  0  0  0  0  0  0  0  0
    3.8059   -3.4097    7.6503 H   0  0  0  0  0  0  0  0  0  0  0  0
    5.8337    1.9042    6.0160 H   0  0  0  0  0  0  0  0  0  0  0  0
    5.6544    3.5345    5.3345 H   0  0  0  0  0  0  0  0  0  0  0  0
    7.1979    2.9916    6.0094 H   0  0  0  0  0  0  0  0  0  0  0  0
    6.1310    5.2319    8.6044 H   0  0  0  0  0  0  0  0  0  0  0  0
    7.2594    4.9467    7.3116 H   0  0  0  0  0  0  0  0  0  0  0  0
    5.6369    5.5308    6.9214 H   0  0  0  0  0  0  0  0  0  0  0  0
    4.7617    3.4421   10.0141 H   0  0  0  0  0  0  0  0  0  0  0  0
    4.0645    4.9014    9.2821 H   0  0  0  0  0  0  0  0  0  0  0  0
    3.0431    3.5059    9.6178 H   0  0  0  0  0  0  0  0  0  0  0  0
    2.2907    3.6223    7.2096 H   0  0  0  0  0  0  0  0  0  0  0  0
    3.4221    4.9035    6.7748 H   0  0  0  0  0  0  0  0  0  0  0  0
    3.4070    3.3751    5.8764 H   0  0  0  0  0  0  0  0  0  0  0  0
    2.2132   -1.2221    5.1736 H   0  0  0  0  0  0  0  0  0  0  0  0
    2.9236    0.2726    5.7725 H   0  0  0  0  0  0  0  0  0  0  0  0
    5.1795   -0.4441    5.0459 H   0  0  0  0  0  0  0  0  0  0  0  0
    4.0515   -0.4689    3.6838 H   0  0  0  0  0  0  0  0  0  0  0  0
    4.4029   -4.9693    3.5122 H   0  0  0  0  0  0  0  0  0  0  0  0
    4.2976   -4.2874    1.8697 H   0  0  0  0  0  0  0  0  0  0  0  0
    5.3253   -5.7069    2.2162 H   0  0  0  0  0  0  0  0  0  0  0  0
    6.9233    0.4628    0.1444 H   0  0  0  0  0  0  0  0  0  0  0  0
    6.7717    0.6372   -1.5872 H   0  0  0  0  0  0  0  0  0  0  0  0
    4.9815    1.6511   -0.0439 H   0  0  0  0  0  0  0  0  0  0  0  0
    4.7329    1.5296   -2.5087 H   0  0  0  0  0  0  0  0  0  0  0  0
    4.0549   -0.1185   -2.3814 H   0  0  0  0  0  0  0  0  0  0  0  0
    1.0732    0.9375   -0.4101 H   0  0  0  0  0  0  0  0  0  0  0  0
    1.8842   -0.4477   -1.1625 H   0  0  0  0  0  0  0  0  0  0  0  0
    2.9564    1.2712    1.1621 H   0  0  0  0  0  0  0  0  0  0  0  0
    2.3430   -0.3855    1.2705 H   0  0  0  0  0  0  0  0  0  0  0  0
    9.3447   -1.7756   -3.7533 H   0  0  0  0  0  0  0  0  0  0  0  0
    8.3890   -3.1365   -4.3572 H   0  0  0  0  0  0  0  0  0  0  0  0
    8.3086   -0.2140   -5.2732 H   0  0  0  0  0  0  0  0  0  0  0  0
    8.8019   -1.6059   -6.2394 H   0  0  0  0  0  0  0  0  0  0  0  0
    6.5019   -2.4330   -6.3365 H   0  0  0  0  0  0  0  0  0  0  0  0
    6.4820   -0.7284   -6.7688 H   0  0  0  0  0  0  0  0  0  0  0  0
   -0.6375    4.0807   -2.9187 H   0  0  0  0  0  0  0  0  0  0  0  0
    0.7249    2.9527   -1.2390 H   0  0  0  0  0  0  0  0  0  0  0  0
    3.2326    1.2974   -4.3160 H   0  0  0  0  0  0  0  0  0  0  0  0
  1  2  1  0
  2  3  1  0
  2  5  1  0
  3  4  1  0
  5  6  2  0
  5 10  1  0
  6  7  1  0
  7  8  2  0
  8  9  1  0
  9 10  2  0
 10 11  1  0
 11 12  1  0
 11 15  2  0
 12 13  1  0
 12 68  1  0
 13 14  1  0
 15 16  1  0
 15 67  1  0
 16 17  1  0
 17 18  1  0
 17 19  1  0
 17 20  1  0
 20 21  1  0
 21 22  1  0
 22 23  1  0
 22 66  2  0
 23 24  1  0
 23 65  1  0
 24 25  1  0
 25 26  1  0
 25 63  1  0
 26 27  1  0
 26 62  2  0
 27 28  1  0
 27 55  1  0
 28 29  1  0
 29 30  1  0
 29 54  2  0
 30 31  1  0
 30 34  1  0
 31 32  1  0
 31 33  1  0
 34 35  1  0
 34 53  1  0
 35 36  1  0
 35 52  2  0
 36 37  1  0
 36 51  1  0
 36 73  1  0
 37 38  1  0
 38 39  1  0
 39 40  1  0
 39 50  1  0
 40 41  1  0
 40 49  2  0
 42 43  1  0
 43 44  1  0
 43 47  1  0
 43 48  1  0
 44 45  1  0
 44 46  1  0
 50 51  1  0
 55 56  1  0
 56 57  1  0
 56 61  1  0
 57 58  1  0
 58 59  1  0
 58 71  1  0
 59 60  1  0
 60 61  1  0
 63 64  1  0
 64 65  1  0
 67 68  2  0
 67 72  1  0
 68 69  1  0
 69 70  2  0
 70 71  1  0
 71 72  2  0
  1 74  1  0
  1 75  1  0
  1 76  1  0
  2 77  1  1
  4 78  1  0
  4 79  1  0
  4 80  1  0
  7 81  1  0
  8 82  1  0
  9 83  1  0
 13 84  1  0
 13 85  1  0
 14 86  1  0
 14 87  1  0
 14 88  1  0
 16 89  1  0
 16 90  1  0
 18 91  1  0
 18 92  1  0
 18 93  1  0
 19 94  1  0
 19 95  1  0
 19 96  1  0
 20 97  1  0
 20 98  1  0
 23 99  1  1
 24100  1  0
 27101  1  6
 28102  1  0
 30103  1  1
 31104  1  0
 32105  1  0
 32106  1  0
 32107  1  0
 33108  1  0
 33109  1  0
 33110  1  0
 37111  1  0
 37112  1  0
 38113  1  0
 38114  1  0
 45115  1  0
 45116  1  0
 45117  1  0
 46118  1  0
 46119  1  0
 46120  1  0
 47121  1  0
 47122  1  0
 47123  1  0
 48124  1  0
 48125  1  0
 48126  1  0
 50127  1  0
 50128  1  0
 51129  1  0
 51130  1  0
 53131  1  0
 53132  1  0
 53133  1  0
 55134  1  0
 55135  1  0
 56136  1  1
 57137  1  0
 57138  1  0
 59139  1  0
 59140  1  0
 60141  1  0
 60142  1  0
 63143  1  0
 63144  1  0
 64145  1  0
 64146  1  0
 65147  1  0
 65148  1  0
 69149  1  0
 70150  1  0
 72151  1  0
 41 42  3  0
M  END
$$$$
