mol_ETKDG2_14
     RDKit          3D

151157  0  0  0  0  0  0  0  0999 V2000
    3.6649    8.9395   -6.3874 C   0  0  0  0  0  0  0  0  0  0  0  0
    3.0841    7.5237   -6.2557 C   0  0  2  0  0  0  0  0  0  0  0  0
    3.7507    6.8106   -5.2081 O   0  0  0  0  0  0  0  0  0  0  0  0
    5.0519    6.3613   -5.5558 C   0  0  0  0  0  0  0  0  0  0  0  0
    2.9225    6.7876   -7.5932 C   0  0  0  0  0  0  0  0  0  0  0  0
    3.4965    7.3612   -8.6850 N   0  0  0  0  0  0  0  0  0  0  0  0
    3.1218    6.9164   -9.9098 C   0  0  0  0  0  0  0  0  0  0  0  0
    2.1835    5.9130  -10.1025 C   0  0  0  0  0  0  0  0  0  0  0  0
    1.6561    5.2813   -8.9886 C   0  0  0  0  0  0  0  0  0  0  0  0
    2.0662    5.6694   -7.7047 C   0  0  0  0  0  0  0  0  0  0  0  0
    1.7530    4.8033   -6.5589 C   0  0  0  0  0  0  0  0  0  0  0  0
    0.8696    5.0754   -5.5303 N   0  0  0  0  0  0  0  0  0  0  0  0
   -0.1762    6.0905   -5.5516 C   0  0  0  0  0  0  0  0  0  0  0  0
   -1.5755    5.4987   -5.5329 C   0  0  0  0  0  0  0  0  0  0  0  0
    2.4292    3.6281   -6.2196 C   0  0  0  0  0  0  0  0  0  0  0  0
    3.4053    2.8715   -7.0905 C   0  0  0  0  0  0  0  0  0  0  0  0
    2.8931    1.5354   -7.6988 C   0  0  0  0  0  0  0  0  0  0  0  0
    3.8042    1.1767   -8.8978 C   0  0  0  0  0  0  0  0  0  0  0  0
    1.4484    1.6045   -8.2168 C   0  0  0  0  0  0  0  0  0  0  0  0
    2.9694    0.3817   -6.6743 C   0  0  0  0  0  0  0  0  0  0  0  0
    4.3205    0.2616   -6.1969 O   0  0  0  0  0  0  0  0  0  0  0  0
    4.5366   -0.7625   -5.3101 C   0  0  0  0  0  0  0  0  0  0  0  0
    5.9874   -0.7335   -4.8267 C   0  0  1  0  0  0  0  0  0  0  0  0
    6.1919   -1.7631   -3.7864 N   0  0  0  0  0  0  0  0  0  0  0  0
    7.4944   -1.6874   -3.2660 N   0  0  0  0  0  0  0  0  0  0  0  0
    7.8149   -1.5040   -1.9201 C   0  0  0  0  0  0  0  0  0  0  0  0
    6.6628   -1.1405   -0.9474 C   0  0  1  0  0  0  0  0  0  0  0  0
    6.9648   -1.6030    0.4012 N   0  0  0  0  0  0  0  0  0  0  0  0
    7.1596   -2.9371    0.6878 C   0  0  0  0  0  0  0  0  0  0  0  0
    7.4091   -3.1943    2.1905 C   0  0  2  0  0  0  0  0  0  0  0  0
    8.1749   -4.5030    2.5054 C   0  0  0  0  0  0  0  0  0  0  0  0
    8.4481   -4.6062    4.0091 C   0  0  0  0  0  0  0  0  0  0  0  0
    9.5135   -4.5492    1.7485 C   0  0  0  0  0  0  0  0  0  0  0  0
    6.1151   -3.1281    2.9135 N   0  0  0  0  0  0  0  0  0  0  0  0
    5.8488   -2.0003    3.6791 C   0  0  0  0  0  0  0  0  0  0  0  0
    4.6366   -2.0205    4.6334 C   0  0  0  0  0  0  0  0  0  0  0  0
    4.8307   -3.1095    5.7033 C   0  0  0  0  0  0  0  0  0  0  0  0
    3.7607   -3.0193    6.7827 C   0  0  0  0  0  0  0  0  0  0  0  0
    3.8211   -1.6850    7.3590 N   0  0  0  0  0  0  0  0  0  0  0  0
    4.6710   -1.4936    8.4325 C   0  0  0  0  0  0  0  0  0  0  0  0
    5.2146   -0.1864    8.6753 C   0  0  0  0  0  0  0  0  0  0  0  0
    5.7561    0.8690    8.8560 C   0  0  0  0  0  0  0  0  0  0  0  0
    6.5400    2.1109    9.0516 C   0  0  0  0  0  0  0  0  0  0  0  0
    7.7906    1.8635    9.8228 N   0  0  0  0  0  0  0  0  0  0  0  0
    8.7284    0.9511    9.1509 C   0  0  0  0  0  0  0  0  0  0  0  0
    7.5659    1.4048   11.1954 C   0  0  0  0  0  0  0  0  0  0  0  0
    6.8645    2.7061    7.6663 C   0  0  0  0  0  0  0  0  0  0  0  0
    5.6451    3.1396    9.7811 C   0  0  0  0  0  0  0  0  0  0  0  0
    5.0652   -2.4079    9.1526 O   0  0  0  0  0  0  0  0  0  0  0  0
    3.4684   -0.6326    6.4055 C   0  0  0  0  0  0  0  0  0  0  0  0
    4.4786   -0.6233    5.2683 C   0  0  0  0  0  0  0  0  0  0  0  0
    6.6173   -1.0360    3.6445 O   0  0  0  0  0  0  0  0  0  0  0  0
    5.0462   -4.0045    2.4333 C   0  0  0  0  0  0  0  0  0  0  0  0
    7.1310   -3.8158   -0.1586 O   0  0  0  0  0  0  0  0  0  0  0  0
    6.5547    0.3958   -0.9644 C   0  0  0  0  0  0  0  0  0  0  0  0
    5.1881    1.0025   -0.5863 C   0  0  1  0  0  0  0  0  0  0  0  0
    4.3634    1.2824   -1.8557 C   0  0  0  0  0  0  0  0  0  0  0  0
    3.1181    1.9698   -1.4939 N   0  0  0  0  0  0  0  0  0  0  0  0
    2.3402    1.2337   -0.4543 C   0  0  0  0  0  0  0  0  0  0  0  0
    3.2555    0.8325    0.7236 C   0  0  0  0  0  0  0  0  0  0  0  0
    4.4541    0.1579    0.3040 O   0  0  0  0  0  0  0  0  0  0  0  0
    8.9848   -1.5206   -1.5249 O   0  0  0  0  0  0  0  0  0  0  0  0
    8.5394   -1.9946   -4.2520 C   0  0  0  0  0  0  0  0  0  0  0  0
    8.4163   -1.0531   -5.4579 C   0  0  0  0  0  0  0  0  0  0  0  0
    6.9702   -1.0023   -5.9704 C   0  0  0  0  0  0  0  0  0  0  0  0
    3.6770   -1.5306   -4.8967 O   0  0  0  0  0  0  0  0  0  0  0  0
    2.1803    3.4161   -4.8255 C   0  0  0  0  0  0  0  0  0  0  0  0
    1.2021    4.3203   -4.4221 C   0  0  0  0  0  0  0  0  0  0  0  0
    0.7576    4.3747   -3.0924 C   0  0  0  0  0  0  0  0  0  0  0  0
    1.3839    3.5444   -2.1501 C   0  0  0  0  0  0  0  0  0  0  0  0
    2.4130    2.6556   -2.4905 C   0  0  0  0  0  0  0  0  0  0  0  0
    2.7697    2.5814   -3.8470 C   0  0  0  0  0  0  0  0  0  0  0  0
    3.4682   -2.2803    3.9606 F   0  0  0  0  0  0  0  0  0  0  0  0
    3.7282    9.4058   -5.3950 H   0  0  0  0  0  0  0  0  0  0  0  0
    4.6839    8.9427   -6.8020 H   0  0  0  0  0  0  0  0  0  0  0  0
    3.0424    9.5601   -7.0404 H   0  0  0  0  0  0  0  0  0  0  0  0
    2.0655    7.6867   -5.8883 H   0  0  0  0  0  0  0  0  0  0  0  0
    4.9961    5.3472   -5.9626 H   0  0  0  0  0  0  0  0  0  0  0  0
    5.5454    7.0330   -6.2622 H   0  0  0  0  0  0  0  0  0  0  0  0
    5.6831    6.3296   -4.6596 H   0  0  0  0  0  0  0  0  0  0  0  0
    3.6192    7.3954  -10.7386 H   0  0  0  0  0  0  0  0  0  0  0  0
    1.9188    5.6011  -11.1084 H   0  0  0  0  0  0  0  0  0  0  0  0
    0.9460    4.4614   -9.1029 H   0  0  0  0  0  0  0  0  0  0  0  0
   -0.0203    6.7550   -4.6943 H   0  0  0  0  0  0  0  0  0  0  0  0
   -0.0604    6.6943   -6.4551 H   0  0  0  0  0  0  0  0  0  0  0  0
   -1.7984    5.0336   -4.5628 H   0  0  0  0  0  0  0  0  0  0  0  0
   -2.3191    6.2866   -5.7043 H   0  0  0  0  0  0  0  0  0  0  0  0
   -1.6977    4.7318   -6.3094 H   0  0  0  0  0  0  0  0  0  0  0  0
    3.7193    3.5329   -7.9081 H   0  0  0  0  0  0  0  0  0  0  0  0
    4.3208    2.6992   -6.5062 H   0  0  0  0  0  0  0  0  0  0  0  0
    4.8604    1.0983   -8.6046 H   0  0  0  0  0  0  0  0  0  0  0  0
    3.5142    0.2263   -9.3543 H   0  0  0  0  0  0  0  0  0  0  0  0
    3.7414    1.9517   -9.6750 H   0  0  0  0  0  0  0  0  0  0  0  0
    0.7376    1.8419   -7.4144 H   0  0  0  0  0  0  0  0  0  0  0  0
    1.3508    2.3530   -9.0050 H   0  0  0  0  0  0  0  0  0  0  0  0
    1.1308    0.6484   -8.6512 H   0  0  0  0  0  0  0  0  0  0  0  0
    2.3015    0.5708   -5.8349 H   0  0  0  0  0  0  0  0  0  0  0  0
    2.6771   -0.5646   -7.1436 H   0  0  0  0  0  0  0  0  0  0  0  0
    6.1686    0.2589   -4.3874 H   0  0  0  0  0  0  0  0  0  0  0  0
    5.4496   -1.7444   -3.0936 H   0  0  0  0  0  0  0  0  0  0  0  0
    5.7318   -1.6255   -1.2469 H   0  0  0  0  0  0  0  0  0  0  0  0
    6.8512   -0.9579    1.1860 H   0  0  0  0  0  0  0  0  0  0  0  0
    8.0577   -2.3727    2.5310 H   0  0  0  0  0  0  0  0  0  0  0  0
    7.5786   -5.3746    2.2067 H   0  0  0  0  0  0  0  0  0  0  0  0
    7.5240   -4.5298    4.5986 H   0  0  0  0  0  0  0  0  0  0  0  0
    8.9100   -5.5726    4.2533 H   0  0  0  0  0  0  0  0  0  0  0  0
    9.1350   -3.8138    4.3455 H   0  0  0  0  0  0  0  0  0  0  0  0
   10.3008   -5.0390    2.3451 H   0  0  0  0  0  0  0  0  0  0  0  0
    9.3996   -5.1109    0.8108 H   0  0  0  0  0  0  0  0  0  0  0  0
    9.8674   -3.5404    1.4839 H   0  0  0  0  0  0  0  0  0  0  0  0
    4.7876   -4.1124    5.2628 H   0  0  0  0  0  0  0  0  0  0  0  0
    5.8258   -3.0003    6.1585 H   0  0  0  0  0  0  0  0  0  0  0  0
    2.7629   -3.1859    6.3773 H   0  0  0  0  0  0  0  0  0  0  0  0
    3.9522   -3.7842    7.5555 H   0  0  0  0  0  0  0  0  0  0  0  0
    9.6144    0.7742    9.7794 H   0  0  0  0  0  0  0  0  0  0  0  0
    8.2882   -0.0233    8.9245 H   0  0  0  0  0  0  0  0  0  0  0  0
    9.1161    1.3953    8.2266 H   0  0  0  0  0  0  0  0  0  0  0  0
    6.9282    0.5120   11.2597 H   0  0  0  0  0  0  0  0  0  0  0  0
    8.5108    1.1798   11.6961 H   0  0  0  0  0  0  0  0  0  0  0  0
    7.1072    2.2076   11.7912 H   0  0  0  0  0  0  0  0  0  0  0  0
    7.4891    3.6065    7.7557 H   0  0  0  0  0  0  0  0  0  0  0  0
    7.3772    1.9910    7.0115 H   0  0  0  0  0  0  0  0  0  0  0  0
    5.9463    2.9945    7.1379 H   0  0  0  0  0  0  0  0  0  0  0  0
    5.2735    2.7588   10.7400 H   0  0  0  0  0  0  0  0  0  0  0  0
    6.1973    4.0686    9.9651 H   0  0  0  0  0  0  0  0  0  0  0  0
    4.7615    3.3886    9.1824 H   0  0  0  0  0  0  0  0  0  0  0  0
    2.4613   -0.8352    6.0291 H   0  0  0  0  0  0  0  0  0  0  0  0
    3.4373    0.3405    6.9019 H   0  0  0  0  0  0  0  0  0  0  0  0
    5.4430   -0.2705    5.6643 H   0  0  0  0  0  0  0  0  0  0  0  0
    4.1565    0.0980    4.5050 H   0  0  0  0  0  0  0  0  0  0  0  0
    4.3904   -4.3129    3.2467 H   0  0  0  0  0  0  0  0  0  0  0  0
    4.4456   -3.4601    1.6916 H   0  0  0  0  0  0  0  0  0  0  0  0
    5.4630   -4.9098    1.9713 H   0  0  0  0  0  0  0  0  0  0  0  0
    7.3002    0.7994   -0.2560 H   0  0  0  0  0  0  0  0  0  0  0  0
    6.8542    0.7957   -1.9429 H   0  0  0  0  0  0  0  0  0  0  0  0
    5.3932    1.9437   -0.0739 H   0  0  0  0  0  0  0  0  0  0  0  0
    4.9605    1.9106   -2.5288 H   0  0  0  0  0  0  0  0  0  0  0  0
    4.1246    0.3330   -2.3604 H   0  0  0  0  0  0  0  0  0  0  0  0
    1.5169    1.8348   -0.0660 H   0  0  0  0  0  0  0  0  0  0  0  0
    1.9269    0.3321   -0.9187 H   0  0  0  0  0  0  0  0  0  0  0  0
    3.5360    1.7128    1.3121 H   0  0  0  0  0  0  0  0  0  0  0  0
    2.7089    0.1557    1.3854 H   0  0  0  0  0  0  0  0  0  0  0  0
    9.5457   -1.9232   -3.8078 H   0  0  0  0  0  0  0  0  0  0  0  0
    8.3981   -3.0417   -4.5677 H   0  0  0  0  0  0  0  0  0  0  0  0
    8.7180   -0.0431   -5.1490 H   0  0  0  0  0  0  0  0  0  0  0  0
    9.0979   -1.3714   -6.2476 H   0  0  0  0  0  0  0  0  0  0  0  0
    6.7274   -1.9572   -6.4627 H   0  0  0  0  0  0  0  0  0  0  0  0
    6.8935   -0.2262   -6.7378 H   0  0  0  0  0  0  0  0  0  0  0  0
    0.0019    5.0823   -2.7713 H   0  0  0  0  0  0  0  0  0  0  0  0
    1.0982    3.6648   -1.1044 H   0  0  0  0  0  0  0  0  0  0  0  0
    3.5613    1.9251   -4.1659 H   0  0  0  0  0  0  0  0  0  0  0  0
  1  2  1  0
  2  3  1  0
  2  5  1  0
  3  4  1  0
  5  6  2  0
  5 10  1  0
  6  7  1  0
  7  8  2  0
  8  9  1  0
  9 10  2  0
 10 11  1  0
 11 12  1  0
 11 15  2  0
 12 13  1  0
 12 68  1  0
 13 14  1  0
 15 16  1  0
 15 67  1  0
 16 17  1  0
 17 18  1  0
 17 19  1  0
 17 20  1  0
 20 21  1  0
 21 22  1  0
 22 23  1  0
 22 66  2  0
 23 24  1  0
 23 65  1  0
 24 25  1  0
 25 26  1  0
 25 63  1  0
 26 27  1  0
 26 62  2  0
 27 28  1  0
 27 55  1  0
 28 29  1  0
 29 30  1  0
 29 54  2  0
 30 31  1  0
 30 34  1  0
 31 32  1  0
 31 33  1  0
 34 35  1  0
 34 53  1  0
 35 36  1  0
 35 52  2  0
 36 37  1  0
 36 51  1  0
 36 73  1  0
 37 38  1  0
 38 39  1  0
 39 40  1  0
 39 50  1  0
 40 41  1  0
 40 49  2  0
 42 43  1  0
 43 44  1  0
 43 47  1  0
 43 48  1  0
 44 45  1  0
 44 46  1  0
 50 51  1  0
 55 56  1  0
 56 57  1  0
 56 61  1  0
 57 58  1  0
 58 59  1  0
 58 71  1  0
 59 60  1  0
 60 61  1  0
 63 64  1  0
 64 65  1  0
 67 68  2  0
 67 72  1  0
 68 69  1  0
 69 70  2  0
 70 71  1  0
 71 72  2  0
  1 74  1  0
  1 75  1  0
  1 76  1  0
  2 77  1  1
  4 78  1  0
  4 79  1  0
  4 80  1  0
  7 81  1  0
  8 82  1  0
  9 83  1  0
 13 84  1  0
 13 85  1  0
 14 86  1  0
 14 87  1  0
 14 88  1  0
 16 89  1  0
 16 90  1  0
 18 91  1  0
 18 92  1  0
 18 93  1  0
 19 94  1  0
 19 95  1  0
 19 96  1  0
 20 97  1  0
 20 98  1  0
 23 99  1  1
 24100  1  0
 27101  1  6
 28102  1  0
 30103  1  1
 31104  1  0
 32105  1  0
 32106  1  0
 32107  1  0
 33108  1  0
 33109  1  0
 33110  1  0
 37111  1  0
 37112  1  0
 38113  1  0
 38114  1  0
 45115  1  0
 45116  1  0
 45117  1  0
 46118  1  0
 46119  1  0
 46120  1  0
 47121  1  0
 47122  1  0
 47123  1  0
 48124  1  0
 48125  1  0
 48126  1  0
 50127  1  0
 50128  1  0
 51129  1  0
 51130  1  0
 53131  1  0
 53132  1  0
 53133  1  0
 55134  1  0
 55135  1  0
 56136  1  1
 57137  1  0
 57138  1  0
 59139  1  0
 59140  1  0
 60141  1  0
 60142  1  0
 63143  1  0
 63144  1  0
 64145  1  0
 64146  1  0
 65147  1  0
 65148  1  0
 69149  1  0
 70150  1  0
 72151  1  0
 41 42  3  0
M  END
$$$$
