mol_ETKDG1_7
     RDKit          3D

151157  0  0  0  0  0  0  0  0999 V2000
    2.0182    7.4736   -8.2902 C   0  0  0  0  0  0  0  0  0  0  0  0
    1.9417    6.0043   -7.8638 C   0  0  2  0  0  0  0  0  0  0  0  0
    3.1772    5.3448   -8.1792 O   0  0  0  0  0  0  0  0  0  0  0  0
    4.1703    5.5231   -7.1792 C   0  0  0  0  0  0  0  0  0  0  0  0
    0.7956    5.2663   -8.5545 C   0  0  0  0  0  0  0  0  0  0  0  0
    0.4397    5.7062   -9.7986 N   0  0  0  0  0  0  0  0  0  0  0  0
   -0.5563    5.0641  -10.4441 C   0  0  0  0  0  0  0  0  0  0  0  0
   -1.2487    3.9957   -9.9122 C   0  0  0  0  0  0  0  0  0  0  0  0
   -0.8921    3.5528   -8.6442 C   0  0  0  0  0  0  0  0  0  0  0  0
    0.1491    4.1762   -7.9443 C   0  0  0  0  0  0  0  0  0  0  0  0
    0.5061    3.6749   -6.6106 C   0  0  0  0  0  0  0  0  0  0  0  0
   -0.1579    4.0475   -5.4580 N   0  0  0  0  0  0  0  0  0  0  0  0
   -1.3438    4.8926   -5.3913 C   0  0  0  0  0  0  0  0  0  0  0  0
   -1.0113    6.3661   -5.2266 C   0  0  0  0  0  0  0  0  0  0  0  0
    1.5345    2.8058   -6.2413 C   0  0  0  0  0  0  0  0  0  0  0  0
    2.5019    2.1265   -7.1831 C   0  0  0  0  0  0  0  0  0  0  0  0
    2.1833    0.6558   -7.5889 C   0  0  0  0  0  0  0  0  0  0  0  0
    0.7367    0.4774   -8.0781 C   0  0  0  0  0  0  0  0  0  0  0  0
    3.1230    0.2897   -8.7637 C   0  0  0  0  0  0  0  0  0  0  0  0
    2.4346   -0.3321   -6.4301 C   0  0  0  0  0  0  0  0  0  0  0  0
    3.8205   -0.2903   -6.0608 O   0  0  0  0  0  0  0  0  0  0  0  0
    4.1673   -1.0984   -5.0225 C   0  0  0  0  0  0  0  0  0  0  0  0
    5.6544   -0.9233   -4.7047 C   0  0  1  0  0  0  0  0  0  0  0  0
    6.0463   -1.8742   -3.6532 N   0  0  0  0  0  0  0  0  0  0  0  0
    7.3785   -1.6539   -3.2487 N   0  0  0  0  0  0  0  0  0  0  0  0
    7.7911   -1.3760   -1.9419 C   0  0  0  0  0  0  0  0  0  0  0  0
    6.7070   -1.0023   -0.8965 C   0  0  1  0  0  0  0  0  0  0  0  0
    7.1056   -1.5223    0.4080 N   0  0  0  0  0  0  0  0  0  0  0  0
    7.0432   -2.8761    0.6655 C   0  0  0  0  0  0  0  0  0  0  0  0
    7.3055   -3.2362    2.1455 C   0  0  2  0  0  0  0  0  0  0  0  0
    7.8901   -4.6641    2.3093 C   0  0  0  0  0  0  0  0  0  0  0  0
    7.9641   -5.0784    3.7838 C   0  0  0  0  0  0  0  0  0  0  0  0
    9.2970   -4.7389    1.7011 C   0  0  0  0  0  0  0  0  0  0  0  0
    6.0390   -3.0141    2.8948 N   0  0  0  0  0  0  0  0  0  0  0  0
    5.8343   -1.7246    3.4073 C   0  0  0  0  0  0  0  0  0  0  0  0
    4.5991   -1.4727    4.3021 C   0  0  0  0  0  0  0  0  0  0  0  0
    4.7539   -2.2591    5.6174 C   0  0  0  0  0  0  0  0  0  0  0  0
    3.6404   -1.9074    6.5998 C   0  0  0  0  0  0  0  0  0  0  0  0
    3.6008   -0.4664    6.7911 N   0  0  0  0  0  0  0  0  0  0  0  0
    4.2186    0.0736    7.9167 C   0  0  0  0  0  0  0  0  0  0  0  0
    4.4526    1.4997    7.9542 C   0  0  0  0  0  0  0  0  0  0  0  0
    4.6850    2.6793    7.9463 C   0  0  0  0  0  0  0  0  0  0  0  0
    4.9971    4.1266    7.8853 C   0  0  0  0  0  0  0  0  0  0  0  0
    6.3085    4.3945    7.2296 N   0  0  0  0  0  0  0  0  0  0  0  0
    6.3908    3.9515    5.8341 C   0  0  0  0  0  0  0  0  0  0  0  0
    7.4650    3.8748    7.9686 C   0  0  0  0  0  0  0  0  0  0  0  0
    3.8592    4.8386    7.1156 C   0  0  0  0  0  0  0  0  0  0  0  0
    4.9763    4.6985    9.3211 C   0  0  0  0  0  0  0  0  0  0  0  0
    4.6080   -0.5952    8.8675 O   0  0  0  0  0  0  0  0  0  0  0  0
    3.3307    0.2906    5.5748 C   0  0  0  0  0  0  0  0  0  0  0  0
    4.4433    0.0354    4.5678 C   0  0  0  0  0  0  0  0  0  0  0  0
    6.6603   -0.8259    3.2016 O   0  0  0  0  0  0  0  0  0  0  0  0
    4.8918   -3.8417    2.5244 C   0  0  0  0  0  0  0  0  0  0  0  0
    6.7237   -3.7029   -0.1850 O   0  0  0  0  0  0  0  0  0  0  0  0
    6.5840    0.5335   -0.8640 C   0  0  0  0  0  0  0  0  0  0  0  0
    5.1752    1.0620   -0.5449 C   0  0  1  0  0  0  0  0  0  0  0  0
    4.3231    1.2218   -1.8306 C   0  0  0  0  0  0  0  0  0  0  0  0
    2.9893    1.7313   -1.4687 N   0  0  0  0  0  0  0  0  0  0  0  0
    2.3201    0.8449   -0.4888 C   0  0  0  0  0  0  0  0  0  0  0  0
    3.2239    0.6829    0.7457 C   0  0  0  0  0  0  0  0  0  0  0  0
    4.5315    0.1922    0.4047 O   0  0  0  0  0  0  0  0  0  0  0  0
    8.9902   -1.3202   -1.6445 O   0  0  0  0  0  0  0  0  0  0  0  0
    8.3589   -1.9354   -4.3029 C   0  0  0  0  0  0  0  0  0  0  0  0
    8.0384   -1.0962   -5.5438 C   0  0  0  0  0  0  0  0  0  0  0  0
    6.5528   -1.1797   -5.9242 C   0  0  0  0  0  0  0  0  0  0  0  0
    3.3845   -1.7834   -4.3779 O   0  0  0  0  0  0  0  0  0  0  0  0
    1.5539    2.7664   -4.8031 C   0  0  0  0  0  0  0  0  0  0  0  0
    0.4765    3.5238   -4.3493 C   0  0  0  0  0  0  0  0  0  0  0  0
    0.2034    3.6740   -2.9841 C   0  0  0  0  0  0  0  0  0  0  0  0
    1.0545    3.0483   -2.0660 C   0  0  0  0  0  0  0  0  0  0  0  0
    2.1600    2.2814   -2.4540 C   0  0  0  0  0  0  0  0  0  0  0  0
    2.4023    2.1637   -3.8356 C   0  0  0  0  0  0  0  0  0  0  0  0
    3.4399   -1.8804    3.6923 F   0  0  0  0  0  0  0  0  0  0  0  0
    2.7911    8.0052   -7.7267 H   0  0  0  0  0  0  0  0  0  0  0  0
    2.2881    7.5683   -9.3483 H   0  0  0  0  0  0  0  0  0  0  0  0
    1.0657    7.9877   -8.1252 H   0  0  0  0  0  0  0  0  0  0  0  0
    1.7724    5.9872   -6.7809 H   0  0  0  0  0  0  0  0  0  0  0  0
    3.8210    5.1461   -6.2124 H   0  0  0  0  0  0  0  0  0  0  0  0
    5.0558    4.9522   -7.4722 H   0  0  0  0  0  0  0  0  0  0  0  0
    4.4538    6.5758   -7.0930 H   0  0  0  0  0  0  0  0  0  0  0  0
   -0.7883    5.4459  -11.4345 H   0  0  0  0  0  0  0  0  0  0  0  0
   -2.0407    3.5115  -10.4723 H   0  0  0  0  0  0  0  0  0  0  0  0
   -1.4181    2.7085   -8.2050 H   0  0  0  0  0  0  0  0  0  0  0  0
   -1.9423    4.7304   -6.2925 H   0  0  0  0  0  0  0  0  0  0  0  0
   -1.9552    4.5440   -4.5519 H   0  0  0  0  0  0  0  0  0  0  0  0
   -0.3819    6.5390   -4.3479 H   0  0  0  0  0  0  0  0  0  0  0  0
   -0.4794    6.7543   -6.0997 H   0  0  0  0  0  0  0  0  0  0  0  0
   -1.9300    6.9486   -5.1088 H   0  0  0  0  0  0  0  0  0  0  0  0
    2.5593    2.7270   -8.0999 H   0  0  0  0  0  0  0  0  0  0  0  0
    3.5079    2.1853   -6.7479 H   0  0  0  0  0  0  0  0  0  0  0  0
    0.0090    0.7012   -7.2916 H   0  0  0  0  0  0  0  0  0  0  0  0
    0.5318    1.1192   -8.9395 H   0  0  0  0  0  0  0  0  0  0  0  0
    0.5552   -0.5552   -8.3974 H   0  0  0  0  0  0  0  0  0  0  0  0
    4.1764    0.4388   -8.5017 H   0  0  0  0  0  0  0  0  0  0  0  0
    2.9974   -0.7584   -9.0595 H   0  0  0  0  0  0  0  0  0  0  0  0
    2.9142    0.9085   -9.6441 H   0  0  0  0  0  0  0  0  0  0  0  0
    1.8065   -0.0916   -5.5663 H   0  0  0  0  0  0  0  0  0  0  0  0
    2.1958   -1.3548   -6.7502 H   0  0  0  0  0  0  0  0  0  0  0  0
    5.7821    0.1035   -4.3370 H   0  0  0  0  0  0  0  0  0  0  0  0
    5.3550   -1.9468   -2.9073 H   0  0  0  0  0  0  0  0  0  0  0  0
    5.7527   -1.4714   -1.1361 H   0  0  0  0  0  0  0  0  0  0  0  0
    7.0431   -0.9085    1.2203 H   0  0  0  0  0  0  0  0  0  0  0  0
    8.0628   -2.5388    2.5271 H   0  0  0  0  0  0  0  0  0  0  0  0
    7.2677   -5.3953    1.7791 H   0  0  0  0  0  0  0  0  0  0  0  0
    6.9672   -5.1578    4.2275 H   0  0  0  0  0  0  0  0  0  0  0  0
    8.4458   -6.0573    3.8888 H   0  0  0  0  0  0  0  0  0  0  0  0
    8.5411   -4.3533    4.3695 H   0  0  0  0  0  0  0  0  0  0  0  0
    9.7143   -5.7468    1.8093 H   0  0  0  0  0  0  0  0  0  0  0  0
    9.2850   -4.5014    0.6334 H   0  0  0  0  0  0  0  0  0  0  0  0
    9.9817   -4.0388    2.1950 H   0  0  0  0  0  0  0  0  0  0  0  0
    4.7313   -3.3379    5.4373 H   0  0  0  0  0  0  0  0  0  0  0  0
    5.7284   -2.0314    6.0686 H   0  0  0  0  0  0  0  0  0  0  0  0
    2.6653   -2.2264    6.2111 H   0  0  0  0  0  0  0  0  0  0  0  0
    3.8005   -2.4273    7.5503 H   0  0  0  0  0  0  0  0  0  0  0  0
    6.2892    2.8655    5.7279 H   0  0  0  0  0  0  0  0  0  0  0  0
    5.6385    4.4374    5.2071 H   0  0  0  0  0  0  0  0  0  0  0  0
    7.3565    4.2376    5.3988 H   0  0  0  0  0  0  0  0  0  0  0  0
    7.5479    4.3259    8.9621 H   0  0  0  0  0  0  0  0  0  0  0  0
    7.4429    2.7839    8.0757 H   0  0  0  0  0  0  0  0  0  0  0  0
    8.3978    4.1396    7.4545 H   0  0  0  0  0  0  0  0  0  0  0  0
    2.9095    4.7761    7.6643 H   0  0  0  0  0  0  0  0  0  0  0  0
    4.0824    5.9016    6.9671 H   0  0  0  0  0  0  0  0  0  0  0  0
    3.6698    4.3856    6.1351 H   0  0  0  0  0  0  0  0  0  0  0  0
    5.6251    4.1377   10.0045 H   0  0  0  0  0  0  0  0  0  0  0  0
    5.2893    5.7499    9.3358 H   0  0  0  0  0  0  0  0  0  0  0  0
    3.9684    4.6529    9.7541 H   0  0  0  0  0  0  0  0  0  0  0  0
    2.3639   -0.0439    5.1808 H   0  0  0  0  0  0  0  0  0  0  0  0
    3.2387    1.3605    5.7792 H   0  0  0  0  0  0  0  0  0  0  0  0
    5.3814    0.4562    4.9529 H   0  0  0  0  0  0  0  0  0  0  0  0
    4.2086    0.5594    3.6348 H   0  0  0  0  0  0  0  0  0  0  0  0
    4.2130   -3.9647    3.3691 H   0  0  0  0  0  0  0  0  0  0  0  0
    4.3547   -3.3537    1.7053 H   0  0  0  0  0  0  0  0  0  0  0  0
    5.2080   -4.8389    2.2131 H   0  0  0  0  0  0  0  0  0  0  0  0
    7.2685    0.9233   -0.0970 H   0  0  0  0  0  0  0  0  0  0  0  0
    6.9236    0.9792   -1.8079 H   0  0  0  0  0  0  0  0  0  0  0  0
    5.2839    2.0500   -0.0779 H   0  0  0  0  0  0  0  0  0  0  0  0
    4.8353    1.9203   -2.5029 H   0  0  0  0  0  0  0  0  0  0  0  0
    4.2163    0.2535   -2.3299 H   0  0  0  0  0  0  0  0  0  0  0  0
    1.3515    1.2314   -0.1557 H   0  0  0  0  0  0  0  0  0  0  0  0
    2.1516   -0.1355   -0.9527 H   0  0  0  0  0  0  0  0  0  0  0  0
    3.3343    1.6368    1.2754 H   0  0  0  0  0  0  0  0  0  0  0  0
    2.7745   -0.0346    1.4402 H   0  0  0  0  0  0  0  0  0  0  0  0
    9.3767   -1.7237   -3.9626 H   0  0  0  0  0  0  0  0  0  0  0  0
    8.3010   -3.0067   -4.5330 H   0  0  0  0  0  0  0  0  0  0  0  0
    8.2852   -0.0472   -5.3359 H   0  0  0  0  0  0  0  0  0  0  0  0
    8.6617   -1.4144   -6.3865 H   0  0  0  0  0  0  0  0  0  0  0  0
    6.3388   -2.1701   -6.3462 H   0  0  0  0  0  0  0  0  0  0  0  0
    6.3418   -0.4514   -6.7167 H   0  0  0  0  0  0  0  0  0  0  0  0
   -0.6271    4.2753   -2.6279 H   0  0  0  0  0  0  0  0  0  0  0  0
    0.8572    3.2128   -1.0090 H   0  0  0  0  0  0  0  0  0  0  0  0
    3.2505    1.5984   -4.1972 H   0  0  0  0  0  0  0  0  0  0  0  0
  1  2  1  0
  2  3  1  0
  2  5  1  0
  3  4  1  0
  5  6  2  0
  5 10  1  0
  6  7  1  0
  7  8  2  0
  8  9  1  0
  9 10  2  0
 10 11  1  0
 11 12  1  0
 11 15  2  0
 12 13  1  0
 12 68  1  0
 13 14  1  0
 15 16  1  0
 15 67  1  0
 16 17  1  0
 17 18  1  0
 17 19  1  0
 17 20  1  0
 20 21  1  0
 21 22  1  0
 22 23  1  0
 22 66  2  0
 23 24  1  0
 23 65  1  0
 24 25  1  0
 25 26  1  0
 25 63  1  0
 26 27  1  0
 26 62  2  0
 27 28  1  0
 27 55  1  0
 28 29  1  0
 29 30  1  0
 29 54  2  0
 30 31  1  0
 30 34  1  0
 31 32  1  0
 31 33  1  0
 34 35  1  0
 34 53  1  0
 35 36  1  0
 35 52  2  0
 36 37  1  0
 36 51  1  0
 36 73  1  0
 37 38  1  0
 38 39  1  0
 39 40  1  0
 39 50  1  0
 40 41  1  0
 40 49  2  0
 42 43  1  0
 43 44  1  0
 43 47  1  0
 43 48  1  0
 44 45  1  0
 44 46  1  0
 50 51  1  0
 55 56  1  0
 56 57  1  0
 56 61  1  0
 57 58  1  0
 58 59  1  0
 58 71  1  0
 59 60  1  0
 60 61  1  0
 63 64  1  0
 64 65  1  0
 67 68  2  0
 67 72  1  0
 68 69  1  0
 69 70  2  0
 70 71  1  0
 71 72  2  0
  1 74  1  0
  1 75  1  0
  1 76  1  0
  2 77  1  1
  4 78  1  0
  4 79  1  0
  4 80  1  0
  7 81  1  0
  8 82  1  0
  9 83  1  0
 13 84  1  0
 13 85  1  0
 14 86  1  0
 14 87  1  0
 14 88  1  0
 16 89  1  0
 16 90  1  0
 18 91  1  0
 18 92  1  0
 18 93  1  0
 19 94  1  0
 19 95  1  0
 19 96  1  0
 20 97  1  0
 20 98  1  0
 23 99  1  1
 24100  1  0
 27101  1  6
 28102  1  0
 30103  1  1
 31104  1  0
 32105  1  0
 32106  1  0
 32107  1  0
 33108  1  0
 33109  1  0
 33110  1  0
 37111  1  0
 37112  1  0
 38113  1  0
 38114  1  0
 45115  1  0
 45116  1  0
 45117  1  0
 46118  1  0
 46119  1  0
 46120  1  0
 47121  1  0
 47122  1  0
 47123  1  0
 48124  1  0
 48125  1  0
 48126  1  0
 50127  1  0
 50128  1  0
 51129  1  0
 51130  1  0
 53131  1  0
 53132  1  0
 53133  1  0
 55134  1  0
 55135  1  0
 56136  1  1
 57137  1  0
 57138  1  0
 59139  1  0
 59140  1  0
 60141  1  0
 60142  1  0
 63143  1  0
 63144  1  0
 64145  1  0
 64146  1  0
 65147  1  0
 65148  1  0
 69149  1  0
 70150  1  0
 72151  1  0
 41 42  3  0
M  END
$$$$
