mol_ETKDG5_30
     RDKit          3D

151157  0  0  0  0  0  0  0  0999 V2000
    4.0898    7.7504   -7.7514 C   0  0  0  0  0  0  0  0  0  0  0  0
    3.6212    6.3341   -7.4110 C   0  0  2  0  0  0  0  0  0  0  0  0
    4.7192    5.4191   -7.5507 O   0  0  0  0  0  0  0  0  0  0  0  0
    5.5518    5.3698   -6.4016 C   0  0  0  0  0  0  0  0  0  0  0  0
    2.4701    5.8676   -8.3038 C   0  0  0  0  0  0  0  0  0  0  0  0
    2.3527    6.4619   -9.5268 N   0  0  0  0  0  0  0  0  0  0  0  0
    1.3489    6.0633  -10.3350 C   0  0  0  0  0  0  0  0  0  0  0  0
    0.4236    5.0974   -9.9885 C   0  0  0  0  0  0  0  0  0  0  0  0
    0.5401    4.4965   -8.7416 C   0  0  0  0  0  0  0  0  0  0  0  0
    1.5788    4.8633   -7.8791 C   0  0  0  0  0  0  0  0  0  0  0  0
    1.6950    4.2034   -6.5732 C   0  0  0  0  0  0  0  0  0  0  0  0
    0.9996    4.6073   -5.4508 N   0  0  0  0  0  0  0  0  0  0  0  0
    0.0040    5.6729   -5.4032 C   0  0  0  0  0  0  0  0  0  0  0  0
   -1.4159    5.1424   -5.4924 C   0  0  0  0  0  0  0  0  0  0  0  0
    2.5331    3.1537   -6.1964 C   0  0  0  0  0  0  0  0  0  0  0  0
    3.4495    2.3857   -7.1190 C   0  0  0  0  0  0  0  0  0  0  0  0
    2.9364    1.0066   -7.6310 C   0  0  0  0  0  0  0  0  0  0  0  0
    3.8598    0.5691   -8.7943 C   0  0  0  0  0  0  0  0  0  0  0  0
    1.4995    1.0745   -8.1742 C   0  0  0  0  0  0  0  0  0  0  0  0
    2.9934   -0.0719   -6.5266 C   0  0  0  0  0  0  0  0  0  0  0  0
    4.3557   -0.2510   -6.1094 O   0  0  0  0  0  0  0  0  0  0  0  0
    4.5356   -1.1073   -5.0682 C   0  0  0  0  0  0  0  0  0  0  0  0
    6.0170   -1.1530   -4.6882 C   0  0  1  0  0  0  0  0  0  0  0  0
    6.2134   -2.1132   -3.5879 N   0  0  0  0  0  0  0  0  0  0  0  0
    7.5466   -2.0751   -3.1213 N   0  0  0  0  0  0  0  0  0  0  0  0
    7.9151   -1.9861   -1.7709 C   0  0  0  0  0  0  0  0  0  0  0  0
    6.8357   -1.5374   -0.7489 C   0  0  1  0  0  0  0  0  0  0  0  0
    7.1234   -2.1265    0.5606 N   0  0  0  0  0  0  0  0  0  0  0  0
    6.9763   -3.4899    0.7395 C   0  0  0  0  0  0  0  0  0  0  0  0
    7.1498   -3.9482    2.2057 C   0  0  2  0  0  0  0  0  0  0  0  0
    7.6665   -5.4090    2.2964 C   0  0  0  0  0  0  0  0  0  0  0  0
    7.6530   -5.9238    3.7423 C   0  0  0  0  0  0  0  0  0  0  0  0
    9.1001   -5.5125    1.7531 C   0  0  0  0  0  0  0  0  0  0  0  0
    5.8634   -3.7228    2.9162 N   0  0  0  0  0  0  0  0  0  0  0  0
    5.7005   -2.4751    3.5325 C   0  0  0  0  0  0  0  0  0  0  0  0
    4.4539   -2.2357    4.4189 C   0  0  0  0  0  0  0  0  0  0  0  0
    4.4809   -3.1911    5.6273 C   0  0  0  0  0  0  0  0  0  0  0  0
    3.3555   -2.8649    6.6044 C   0  0  0  0  0  0  0  0  0  0  0  0
    3.4507   -1.4677    6.9907 N   0  0  0  0  0  0  0  0  0  0  0  0
    4.0773   -1.1544    8.1930 C   0  0  0  0  0  0  0  0  0  0  0  0
    4.4618    0.2156    8.4430 C   0  0  0  0  0  0  0  0  0  0  0  0
    4.8163    1.3456    8.6511 C   0  0  0  0  0  0  0  0  0  0  0  0
    5.2926    2.7267    8.9180 C   0  0  0  0  0  0  0  0  0  0  0  0
    4.8982    3.5971    7.7767 N   0  0  0  0  0  0  0  0  0  0  0  0
    5.5663    3.2578    6.5144 C   0  0  0  0  0  0  0  0  0  0  0  0
    5.0589    5.0313    8.0285 C   0  0  0  0  0  0  0  0  0  0  0  0
    6.8172    2.6734    9.1641 C   0  0  0  0  0  0  0  0  0  0  0  0
    4.6112    3.1740   10.2334 C   0  0  0  0  0  0  0  0  0  0  0  0
    4.3605   -1.9884    9.0466 O   0  0  0  0  0  0  0  0  0  0  0  0
    3.2998   -0.5318    5.8830 C   0  0  0  0  0  0  0  0  0  0  0  0
    4.4153   -0.7624    4.8733 C   0  0  0  0  0  0  0  0  0  0  0  0
    6.5666   -1.5998    3.4118 O   0  0  0  0  0  0  0  0  0  0  0  0
    4.7014   -4.4751    2.4434 C   0  0  0  0  0  0  0  0  0  0  0  0
    6.6663   -4.2507   -0.1731 O   0  0  0  0  0  0  0  0  0  0  0  0
    6.8717    0.0011   -0.6735 C   0  0  0  0  0  0  0  0  0  0  0  0
    5.5143    0.6719   -0.4023 C   0  0  1  0  0  0  0  0  0  0  0  0
    4.7852    1.0288   -1.7239 C   0  0  0  0  0  0  0  0  0  0  0  0
    3.4948    1.6698   -1.4127 N   0  0  0  0  0  0  0  0  0  0  0  0
    2.6579    0.8103   -0.5431 C   0  0  0  0  0  0  0  0  0  0  0  0
    3.4453    0.4488    0.7285 C   0  0  0  0  0  0  0  0  0  0  0  0
    4.7042   -0.1775    0.4304 O   0  0  0  0  0  0  0  0  0  0  0  0
    9.0908   -2.1448   -1.4157 O   0  0  0  0  0  0  0  0  0  0  0  0
    8.5295   -2.5057   -4.1238 C   0  0  0  0  0  0  0  0  0  0  0  0
    8.3729   -1.6924   -5.4121 C   0  0  0  0  0  0  0  0  0  0  0  0
    6.9095   -1.5917   -5.8559 C   0  0  0  0  0  0  0  0  0  0  0  0
    3.6344   -1.6725   -4.4620 O   0  0  0  0  0  0  0  0  0  0  0  0
    2.4408    3.0386   -4.7677 C   0  0  0  0  0  0  0  0  0  0  0  0
    1.4490    3.9191   -4.3403 C   0  0  0  0  0  0  0  0  0  0  0  0
    1.0844    4.0219   -2.9916 C   0  0  0  0  0  0  0  0  0  0  0  0
    1.7764    3.2382   -2.0603 C   0  0  0  0  0  0  0  0  0  0  0  0
    2.8059    2.3608   -2.4194 C   0  0  0  0  0  0  0  0  0  0  0  0
    3.1287    2.2774   -3.7866 C   0  0  0  0  0  0  0  0  0  0  0  0
    3.2939   -2.4597    3.7210 F   0  0  0  0  0  0  0  0  0  0  0  0
    4.8426    8.0930   -7.0335 H   0  0  0  0  0  0  0  0  0  0  0  0
    4.5645    7.7863   -8.7392 H   0  0  0  0  0  0  0  0  0  0  0  0
    3.2586    8.4621   -7.7329 H   0  0  0  0  0  0  0  0  0  0  0  0
    3.2675    6.3491   -6.3722 H   0  0  0  0  0  0  0  0  0  0  0  0
    4.9716    5.1423   -5.5026 H   0  0  0  0  0  0  0  0  0  0  0  0
    6.2851    4.5707   -6.5470 H   0  0  0  0  0  0  0  0  0  0  0  0
    6.0930    6.3116   -6.2721 H   0  0  0  0  0  0  0  0  0  0  0  0
    1.3088    6.5571  -11.3012 H   0  0  0  0  0  0  0  0  0  0  0  0
   -0.3654    4.8145  -10.6775 H   0  0  0  0  0  0  0  0  0  0  0  0
   -0.1712    3.7283   -8.4482 H   0  0  0  0  0  0  0  0  0  0  0  0
    0.1524    6.2288   -4.4706 H   0  0  0  0  0  0  0  0  0  0  0  0
    0.2022    6.3777   -6.2163 H   0  0  0  0  0  0  0  0  0  0  0  0
   -1.6320    4.4436   -4.6784 H   0  0  0  0  0  0  0  0  0  0  0  0
   -2.1312    5.9682   -5.4313 H   0  0  0  0  0  0  0  0  0  0  0  0
   -1.5838    4.6156   -6.4361 H   0  0  0  0  0  0  0  0  0  0  0  0
    3.6583    3.0140   -7.9946 H   0  0  0  0  0  0  0  0  0  0  0  0
    4.4217    2.2629   -6.6219 H   0  0  0  0  0  0  0  0  0  0  0  0
    4.9120    0.5551   -8.4905 H   0  0  0  0  0  0  0  0  0  0  0  0
    3.6005   -0.4341   -9.1494 H   0  0  0  0  0  0  0  0  0  0  0  0
    3.7732    1.2528   -9.6460 H   0  0  0  0  0  0  0  0  0  0  0  0
    0.7815    1.3523   -7.3956 H   0  0  0  0  0  0  0  0  0  0  0  0
    1.4231    1.7961   -8.9934 H   0  0  0  0  0  0  0  0  0  0  0  0
    1.1839    0.1031   -8.5716 H   0  0  0  0  0  0  0  0  0  0  0  0
    2.3678    0.2129   -5.6741 H   0  0  0  0  0  0  0  0  0  0  0  0
    2.6247   -1.0300   -6.9168 H   0  0  0  0  0  0  0  0  0  0  0  0
    6.2876   -0.1455   -4.3446 H   0  0  0  0  0  0  0  0  0  0  0  0
    5.4952   -2.0138   -2.8748 H   0  0  0  0  0  0  0  0  0  0  0  0
    5.8520   -1.9064   -1.0396 H   0  0  0  0  0  0  0  0  0  0  0  0
    6.9351   -1.5665    1.3896 H   0  0  0  0  0  0  0  0  0  0  0  0
    7.9206   -3.3138    2.6629 H   0  0  0  0  0  0  0  0  0  0  0  0
    7.0378   -6.0725    1.6912 H   0  0  0  0  0  0  0  0  0  0  0  0
    6.6328   -5.9910    4.1342 H   0  0  0  0  0  0  0  0  0  0  0  0
    8.0909   -6.9262    3.8044 H   0  0  0  0  0  0  0  0  0  0  0  0
    8.2275   -5.2628    4.4010 H   0  0  0  0  0  0  0  0  0  0  0  0
    9.4207   -6.5584    1.7214 H   0  0  0  0  0  0  0  0  0  0  0  0
    9.1793   -5.1126    0.7386 H   0  0  0  0  0  0  0  0  0  0  0  0
    9.8039   -4.9660    2.3900 H   0  0  0  0  0  0  0  0  0  0  0  0
    4.3740   -4.2333    5.3136 H   0  0  0  0  0  0  0  0  0  0  0  0
    5.4490   -3.1085    6.1386 H   0  0  0  0  0  0  0  0  0  0  0  0
    2.3761   -3.0268    6.1390 H   0  0  0  0  0  0  0  0  0  0  0  0
    3.4158   -3.5222    7.4782 H   0  0  0  0  0  0  0  0  0  0  0  0
    5.4392    2.2039    6.2475 H   0  0  0  0  0  0  0  0  0  0  0  0
    5.1208    3.8284    5.6896 H   0  0  0  0  0  0  0  0  0  0  0  0
    6.6367    3.4870    6.5345 H   0  0  0  0  0  0  0  0  0  0  0  0
    4.4366    5.3715    8.8618 H   0  0  0  0  0  0  0  0  0  0  0  0
    6.0995    5.3053    8.2309 H   0  0  0  0  0  0  0  0  0  0  0  0
    4.7230    5.6138    7.1618 H   0  0  0  0  0  0  0  0  0  0  0  0
    7.0491    2.0658   10.0489 H   0  0  0  0  0  0  0  0  0  0  0  0
    7.3561    2.2162    8.3264 H   0  0  0  0  0  0  0  0  0  0  0  0
    7.2417    3.6691    9.3368 H   0  0  0  0  0  0  0  0  0  0  0  0
    4.7697    2.4368   11.0305 H   0  0  0  0  0  0  0  0  0  0  0  0
    5.0076    4.1265   10.6015 H   0  0  0  0  0  0  0  0  0  0  0  0
    3.5270    3.2764   10.1067 H   0  0  0  0  0  0  0  0  0  0  0  0
    2.3194   -0.7087    5.4245 H   0  0  0  0  0  0  0  0  0  0  0  0
    3.3079    0.5035    6.2305 H   0  0  0  0  0  0  0  0  0  0  0  0
    5.3738   -0.4802    5.3287 H   0  0  0  0  0  0  0  0  0  0  0  0
    4.2565   -0.1108    4.0072 H   0  0  0  0  0  0  0  0  0  0  0  0
    3.9215   -4.5295    3.2023 H   0  0  0  0  0  0  0  0  0  0  0  0
    4.2922   -3.9743    1.5606 H   0  0  0  0  0  0  0  0  0  0  0  0
    4.9815   -5.5000    2.1897 H   0  0  0  0  0  0  0  0  0  0  0  0
    7.5567    0.2944    0.1356 H   0  0  0  0  0  0  0  0  0  0  0  0
    7.3054    0.4355   -1.5835 H   0  0  0  0  0  0  0  0  0  0  0  0
    5.7054    1.6031    0.1490 H   0  0  0  0  0  0  0  0  0  0  0  0
    5.4213    1.7085   -2.3024 H   0  0  0  0  0  0  0  0  0  0  0  0
    4.6081    0.1200   -2.3085 H   0  0  0  0  0  0  0  0  0  0  0  0
    1.7238    1.2974   -0.2422 H   0  0  0  0  0  0  0  0  0  0  0  0
    2.4015   -0.1058   -1.0912 H   0  0  0  0  0  0  0  0  0  0  0  0
    3.6335    1.3402    1.3380 H   0  0  0  0  0  0  0  0  0  0  0  0
    2.8650   -0.2525    1.3356 H   0  0  0  0  0  0  0  0  0  0  0  0
    9.5499   -2.3980   -3.7417 H   0  0  0  0  0  0  0  0  0  0  0  0
    8.3623   -3.5727   -4.3157 H   0  0  0  0  0  0  0  0  0  0  0  0
    8.7556   -0.6781   -5.2390 H   0  0  0  0  0  0  0  0  0  0  0  0
    8.9795   -2.1339   -6.2116 H   0  0  0  0  0  0  0  0  0  0  0  0
    6.5754   -2.5642   -6.2425 H   0  0  0  0  0  0  0  0  0  0  0  0
    6.8316   -0.8824   -6.6885 H   0  0  0  0  0  0  0  0  0  0  0  0
    0.3108    4.7041   -2.6571 H   0  0  0  0  0  0  0  0  0  0  0  0
    1.5218    3.3681   -1.0105 H   0  0  0  0  0  0  0  0  0  0  0  0
    3.9233    1.6262   -4.1217 H   0  0  0  0  0  0  0  0  0  0  0  0
  1  2  1  0
  2  3  1  0
  2  5  1  0
  3  4  1  0
  5  6  2  0
  5 10  1  0
  6  7  1  0
  7  8  2  0
  8  9  1  0
  9 10  2  0
 10 11  1  0
 11 12  1  0
 11 15  2  0
 12 13  1  0
 12 68  1  0
 13 14  1  0
 15 16  1  0
 15 67  1  0
 16 17  1  0
 17 18  1  0
 17 19  1  0
 17 20  1  0
 20 21  1  0
 21 22  1  0
 22 23  1  0
 22 66  2  0
 23 24  1  0
 23 65  1  0
 24 25  1  0
 25 26  1  0
 25 63  1  0
 26 27  1  0
 26 62  2  0
 27 28  1  0
 27 55  1  0
 28 29  1  0
 29 30  1  0
 29 54  2  0
 30 31  1  0
 30 34  1  0
 31 32  1  0
 31 33  1  0
 34 35  1  0
 34 53  1  0
 35 36  1  0
 35 52  2  0
 36 37  1  0
 36 51  1  0
 36 73  1  0
 37 38  1  0
 38 39  1  0
 39 40  1  0
 39 50  1  0
 40 41  1  0
 40 49  2  0
 42 43  1  0
 43 44  1  0
 43 47  1  0
 43 48  1  0
 44 45  1  0
 44 46  1  0
 50 51  1  0
 55 56  1  0
 56 57  1  0
 56 61  1  0
 57 58  1  0
 58 59  1  0
 58 71  1  0
 59 60  1  0
 60 61  1  0
 63 64  1  0
 64 65  1  0
 67 68  2  0
 67 72  1  0
 68 69  1  0
 69 70  2  0
 70 71  1  0
 71 72  2  0
  1 74  1  0
  1 75  1  0
  1 76  1  0
  2 77  1  1
  4 78  1  0
  4 79  1  0
  4 80  1  0
  7 81  1  0
  8 82  1  0
  9 83  1  0
 13 84  1  0
 13 85  1  0
 14 86  1  0
 14 87  1  0
 14 88  1  0
 16 89  1  0
 16 90  1  0
 18 91  1  0
 18 92  1  0
 18 93  1  0
 19 94  1  0
 19 95  1  0
 19 96  1  0
 20 97  1  0
 20 98  1  0
 23 99  1  1
 24100  1  0
 27101  1  6
 28102  1  0
 30103  1  1
 31104  1  0
 32105  1  0
 32106  1  0
 32107  1  0
 33108  1  0
 33109  1  0
 33110  1  0
 37111  1  0
 37112  1  0
 38113  1  0
 38114  1  0
 45115  1  0
 45116  1  0
 45117  1  0
 46118  1  0
 46119  1  0
 46120  1  0
 47121  1  0
 47122  1  0
 47123  1  0
 48124  1  0
 48125  1  0
 48126  1  0
 50127  1  0
 50128  1  0
 51129  1  0
 51130  1  0
 53131  1  0
 53132  1  0
 53133  1  0
 55134  1  0
 55135  1  0
 56136  1  1
 57137  1  0
 57138  1  0
 59139  1  0
 59140  1  0
 60141  1  0
 60142  1  0
 63143  1  0
 63144  1  0
 64145  1  0
 64146  1  0
 65147  1  0
 65148  1  0
 69149  1  0
 70150  1  0
 72151  1  0
 41 42  3  0
M  END
$$$$
