mol_ETKDG0_33
     RDKit          3D

151157  0  0  0  0  0  0  0  0999 V2000
    3.6214    8.0539   -7.8603 C   0  0  0  0  0  0  0  0  0  0  0  0
    3.2095    6.6481   -7.4159 C   0  0  2  0  0  0  0  0  0  0  0  0
    4.3130    5.7507   -7.6160 O   0  0  0  0  0  0  0  0  0  0  0  0
    5.2120    5.7311   -6.5161 C   0  0  0  0  0  0  0  0  0  0  0  0
    1.9926    6.1293   -8.1841 C   0  0  0  0  0  0  0  0  0  0  0  0
    1.7518    6.6819   -9.4111 N   0  0  0  0  0  0  0  0  0  0  0  0
    0.6848    6.2441  -10.1108 C   0  0  0  0  0  0  0  0  0  0  0  0
   -0.1884    5.2792   -9.6515 C   0  0  0  0  0  0  0  0  0  0  0  0
    0.0516    4.7205   -8.4029 C   0  0  0  0  0  0  0  0  0  0  0  0
    1.1579    5.1282   -7.6489 C   0  0  0  0  0  0  0  0  0  0  0  0
    1.3918    4.5121   -6.3359 C   0  0  0  0  0  0  0  0  0  0  0  0
    0.7756    4.9355   -5.1756 N   0  0  0  0  0  0  0  0  0  0  0  0
   -0.2644    5.9520   -5.0824 C   0  0  0  0  0  0  0  0  0  0  0  0
   -1.6541    5.3442   -4.9968 C   0  0  0  0  0  0  0  0  0  0  0  0
    2.2520    3.4667   -5.9985 C   0  0  0  0  0  0  0  0  0  0  0  0
    3.0803    2.6606   -6.9711 C   0  0  0  0  0  0  0  0  0  0  0  0
    2.5100    1.2728   -7.3988 C   0  0  0  0  0  0  0  0  0  0  0  0
    3.3220    0.7976   -8.6288 C   0  0  0  0  0  0  0  0  0  0  0  0
    1.0318    1.3383   -7.8144 C   0  0  0  0  0  0  0  0  0  0  0  0
    2.6579    0.2246   -6.2751 C   0  0  0  0  0  0  0  0  0  0  0  0
    4.0474    0.0601   -5.9565 O   0  0  0  0  0  0  0  0  0  0  0  0
    4.3147   -0.7849   -4.9262 C   0  0  0  0  0  0  0  0  0  0  0  0
    5.8185   -0.7968   -4.6464 C   0  0  1  0  0  0  0  0  0  0  0  0
    6.1081   -1.7406   -3.5541 N   0  0  0  0  0  0  0  0  0  0  0  0
    7.4661   -1.6683   -3.1681 N   0  0  0  0  0  0  0  0  0  0  0  0
    7.9088   -1.5778   -1.8398 C   0  0  0  0  0  0  0  0  0  0  0  0
    6.8860   -1.1253   -0.7615 C   0  0  1  0  0  0  0  0  0  0  0  0
    7.2112   -1.7305    0.5322 N   0  0  0  0  0  0  0  0  0  0  0  0
    7.0749   -3.0981    0.6880 C   0  0  0  0  0  0  0  0  0  0  0  0
    7.2284   -3.5845    2.1461 C   0  0  2  0  0  0  0  0  0  0  0  0
    7.8206   -5.0164    2.2198 C   0  0  0  0  0  0  0  0  0  0  0  0
    7.8852   -5.5211    3.6666 C   0  0  0  0  0  0  0  0  0  0  0  0
    9.2345   -5.0535    1.6218 C   0  0  0  0  0  0  0  0  0  0  0  0
    5.9046   -3.4522    2.8166 N   0  0  0  0  0  0  0  0  0  0  0  0
    5.6764   -2.2825    3.5475 C   0  0  0  0  0  0  0  0  0  0  0  0
    4.4144   -2.1847    4.4442 C   0  0  0  0  0  0  0  0  0  0  0  0
    4.3974   -3.3212    5.4821 C   0  0  0  0  0  0  0  0  0  0  0  0
    3.2259   -3.1597    6.4442 C   0  0  0  0  0  0  0  0  0  0  0  0
    3.3064   -1.8517    7.0727 N   0  0  0  0  0  0  0  0  0  0  0  0
    3.8622   -1.7693    8.3472 C   0  0  0  0  0  0  0  0  0  0  0  0
    4.2792   -0.4759    8.8394 C   0  0  0  0  0  0  0  0  0  0  0  0
    4.7057    0.5789    9.2288 C   0  0  0  0  0  0  0  0  0  0  0  0
    5.2912    1.8638    9.6986 C   0  0  0  0  0  0  0  0  0  0  0  0
    6.7715    1.7622    9.6331 N   0  0  0  0  0  0  0  0  0  0  0  0
    7.3088    1.5749    8.2804 C   0  0  0  0  0  0  0  0  0  0  0  0
    7.4962    2.8518   10.2862 C   0  0  0  0  0  0  0  0  0  0  0  0
    4.8052    2.0512   11.1550 C   0  0  0  0  0  0  0  0  0  0  0  0
    4.7119    3.0061    8.8397 C   0  0  0  0  0  0  0  0  0  0  0  0
    4.0580   -2.7451    9.0657 O   0  0  0  0  0  0  0  0  0  0  0  0
    3.2238   -0.7331    6.1414 C   0  0  0  0  0  0  0  0  0  0  0  0
    4.3746   -0.8093    5.1435 C   0  0  0  0  0  0  0  0  0  0  0  0
    6.5004   -1.3596    3.5173 O   0  0  0  0  0  0  0  0  0  0  0  0
    4.8204   -4.2987    2.3163 C   0  0  0  0  0  0  0  0  0  0  0  0
    6.7634   -3.8461   -0.2381 O   0  0  0  0  0  0  0  0  0  0  0  0
    6.9446    0.4126   -0.6788 C   0  0  0  0  0  0  0  0  0  0  0  0
    5.6062    1.0894   -0.3504 C   0  0  1  0  0  0  0  0  0  0  0  0
    4.8016    1.4162   -1.6346 C   0  0  0  0  0  0  0  0  0  0  0  0
    3.5391    2.0733   -1.2579 N   0  0  0  0  0  0  0  0  0  0  0  0
    2.7478    1.2374   -0.3256 C   0  0  0  0  0  0  0  0  0  0  0  0
    3.6081    0.8918    0.9043 C   0  0  0  0  0  0  0  0  0  0  0  0
    4.8453    0.2559    0.5423 O   0  0  0  0  0  0  0  0  0  0  0  0
    9.1020   -1.7294   -1.5471 O   0  0  0  0  0  0  0  0  0  0  0  0
    8.3922   -2.0917   -4.2244 C   0  0  0  0  0  0  0  0  0  0  0  0
    8.1329   -1.3122   -5.5171 C   0  0  0  0  0  0  0  0  0  0  0  0
    6.6389   -1.2399   -5.8625 C   0  0  0  0  0  0  0  0  0  0  0  0
    3.4671   -1.3701   -4.2647 O   0  0  0  0  0  0  0  0  0  0  0  0
    2.2688    3.3865   -4.5627 C   0  0  0  0  0  0  0  0  0  0  0  0
    1.3205    4.2891   -4.0835 C   0  0  0  0  0  0  0  0  0  0  0  0
    1.0647    4.4369   -2.7150 C   0  0  0  0  0  0  0  0  0  0  0  0
    1.8132    3.6684   -1.8157 C   0  0  0  0  0  0  0  0  0  0  0  0
    2.7968    2.7593   -2.2284 C   0  0  0  0  0  0  0  0  0  0  0  0
    3.0154    2.6375   -3.6134 C   0  0  0  0  0  0  0  0  0  0  0  0
    3.2686   -2.2693    3.6935 F   0  0  0  0  0  0  0  0  0  0  0  0
    4.4493    8.4297   -7.2524 H   0  0  0  0  0  0  0  0  0  0  0  0
    3.9755    8.0547   -8.8971 H   0  0  0  0  0  0  0  0  0  0  0  0
    2.7904    8.7608   -7.7739 H   0  0  0  0  0  0  0  0  0  0  0  0
    2.9478    6.7009   -6.3512 H   0  0  0  0  0  0  0  0  0  0  0  0
    4.7019    5.4021   -5.6071 H   0  0  0  0  0  0  0  0  0  0  0  0
    6.0119    5.0213   -6.7385 H   0  0  0  0  0  0  0  0  0  0  0  0
    5.6607    6.7150   -6.3559 H   0  0  0  0  0  0  0  0  0  0  0  0
    0.5495    6.7069  -11.0835 H   0  0  0  0  0  0  0  0  0  0  0  0
   -1.0311    4.9617  -10.2543 H   0  0  0  0  0  0  0  0  0  0  0  0
   -0.6192    3.9558   -8.0205 H   0  0  0  0  0  0  0  0  0  0  0  0
   -0.0550    6.5649   -4.1983 H   0  0  0  0  0  0  0  0  0  0  0  0
   -0.1897    6.6178   -5.9472 H   0  0  0  0  0  0  0  0  0  0  0  0
   -1.7505    4.6909   -4.1231 H   0  0  0  0  0  0  0  0  0  0  0  0
   -2.4079    6.1327   -4.9145 H   0  0  0  0  0  0  0  0  0  0  0  0
   -1.8812    4.7442   -5.8843 H   0  0  0  0  0  0  0  0  0  0  0  0
    3.2261    3.2627   -7.8766 H   0  0  0  0  0  0  0  0  0  0  0  0
    4.0882    2.5412   -6.5508 H   0  0  0  0  0  0  0  0  0  0  0  0
    4.3980    0.7894   -8.4247 H   0  0  0  0  0  0  0  0  0  0  0  0
    3.0304   -0.2155   -8.9263 H   0  0  0  0  0  0  0  0  0  0  0  0
    3.1560    1.4561   -9.4885 H   0  0  0  0  0  0  0  0  0  0  0  0
    0.3886    1.6666   -6.9928 H   0  0  0  0  0  0  0  0  0  0  0  0
    0.8914    2.0146   -8.6612 H   0  0  0  0  0  0  0  0  0  0  0  0
    0.6717    0.3534   -8.1284 H   0  0  0  0  0  0  0  0  0  0  0  0
    2.1001    0.5280   -5.3839 H   0  0  0  0  0  0  0  0  0  0  0  0
    2.2668   -0.7454   -6.6082 H   0  0  0  0  0  0  0  0  0  0  0  0
    6.0934    0.2180   -4.3325 H   0  0  0  0  0  0  0  0  0  0  0  0
    5.4220   -1.6846   -2.8032 H   0  0  0  0  0  0  0  0  0  0  0  0
    5.8852   -1.4753   -1.0117 H   0  0  0  0  0  0  0  0  0  0  0  0
    7.0112   -1.1869    1.3710 H   0  0  0  0  0  0  0  0  0  0  0  0
    7.9480   -2.9186    2.6404 H   0  0  0  0  0  0  0  0  0  0  0  0
    7.2013   -5.7109    1.6408 H   0  0  0  0  0  0  0  0  0  0  0  0
    6.8874   -5.5962    4.1128 H   0  0  0  0  0  0  0  0  0  0  0  0
    8.3365   -6.5194    3.7106 H   0  0  0  0  0  0  0  0  0  0  0  0
    8.4861   -4.8537    4.2945 H   0  0  0  0  0  0  0  0  0  0  0  0
    9.6606   -6.0610    1.6944 H   0  0  0  0  0  0  0  0  0  0  0  0
    9.2310   -4.7759    0.5619 H   0  0  0  0  0  0  0  0  0  0  0  0
    9.9058   -4.3663    2.1488 H   0  0  0  0  0  0  0  0  0  0  0  0
    4.3181   -4.3051    5.0042 H   0  0  0  0  0  0  0  0  0  0  0  0
    5.3429   -3.3222    6.0402 H   0  0  0  0  0  0  0  0  0  0  0  0
    2.2704   -3.2241    5.9099 H   0  0  0  0  0  0  0  0  0  0  0  0
    3.2381   -3.9603    7.1900 H   0  0  0  0  0  0  0  0  0  0  0  0
    8.3624    1.2666    8.3349 H   0  0  0  0  0  0  0  0  0  0  0  0
    6.7995    0.7739    7.7314 H   0  0  0  0  0  0  0  0  0  0  0  0
    7.2581    2.4903    7.6763 H   0  0  0  0  0  0  0  0  0  0  0  0
    7.2663    2.9107   11.3548 H   0  0  0  0  0  0  0  0  0  0  0  0
    8.5792    2.6786   10.2323 H   0  0  0  0  0  0  0  0  0  0  0  0
    7.2934    3.8254    9.8270 H   0  0  0  0  0  0  0  0  0  0  0  0
    5.2428    1.2990   11.8230 H   0  0  0  0  0  0  0  0  0  0  0  0
    5.0506    3.0432   11.5491 H   0  0  0  0  0  0  0  0  0  0  0  0
    3.7157    1.9435   11.2256 H   0  0  0  0  0  0  0  0  0  0  0  0
    5.0964    3.9826    9.1488 H   0  0  0  0  0  0  0  0  0  0  0  0
    4.9333    2.8734    7.7746 H   0  0  0  0  0  0  0  0  0  0  0  0
    3.6192    3.0459    8.9268 H   0  0  0  0  0  0  0  0  0  0  0  0
    2.2597   -0.8034    5.6235 H   0  0  0  0  0  0  0  0  0  0  0  0
    3.2363    0.2271    6.6661 H   0  0  0  0  0  0  0  0  0  0  0  0
    5.3199   -0.6254    5.6706 H   0  0  0  0  0  0  0  0  0  0  0  0
    4.2518   -0.0135    4.3992 H   0  0  0  0  0  0  0  0  0  0  0  0
    3.8806   -4.1472    2.8422 H   0  0  0  0  0  0  0  0  0  0  0  0
    4.6428   -4.0684    1.2634 H   0  0  0  0  0  0  0  0  0  0  0  0
    5.0959   -5.3486    2.4220 H   0  0  0  0  0  0  0  0  0  0  0  0
    7.6650    0.6919    0.1038 H   0  0  0  0  0  0  0  0  0  0  0  0
    7.3441    0.8469   -1.6061 H   0  0  0  0  0  0  0  0  0  0  0  0
    5.8244    2.0322    0.1693 H   0  0  0  0  0  0  0  0  0  0  0  0
    5.4058    2.0729   -2.2716 H   0  0  0  0  0  0  0  0  0  0  0  0
    4.5787    0.4912   -2.1770 H   0  0  0  0  0  0  0  0  0  0  0  0
    1.8368    1.7370    0.0226 H   0  0  0  0  0  0  0  0  0  0  0  0
    2.4544    0.3157   -0.8415 H   0  0  0  0  0  0  0  0  0  0  0  0
    3.8337    1.7924    1.4876 H   0  0  0  0  0  0  0  0  0  0  0  0
    3.0625    0.2023    1.5550 H   0  0  0  0  0  0  0  0  0  0  0  0
    9.4313   -1.9505   -3.9106 H   0  0  0  0  0  0  0  0  0  0  0  0
    8.2377   -3.1647   -4.3834 H   0  0  0  0  0  0  0  0  0  0  0  0
    8.5048   -0.2890   -5.3955 H   0  0  0  0  0  0  0  0  0  0  0  0
    8.6878   -1.7615   -6.3462 H   0  0  0  0  0  0  0  0  0  0  0  0
    6.2927   -2.2224   -6.2072 H   0  0  0  0  0  0  0  0  0  0  0  0
    6.4924   -0.5496   -6.7002 H   0  0  0  0  0  0  0  0  0  0  0  0
    0.3257    5.1386   -2.3427 H   0  0  0  0  0  0  0  0  0  0  0  0
    1.6392    3.8276   -0.7535 H   0  0  0  0  0  0  0  0  0  0  0  0
    3.7688    1.9600   -3.9904 H   0  0  0  0  0  0  0  0  0  0  0  0
  1  2  1  0
  2  3  1  0
  2  5  1  0
  3  4  1  0
  5  6  2  0
  5 10  1  0
  6  7  1  0
  7  8  2  0
  8  9  1  0
  9 10  2  0
 10 11  1  0
 11 12  1  0
 11 15  2  0
 12 13  1  0
 12 68  1  0
 13 14  1  0
 15 16  1  0
 15 67  1  0
 16 17  1  0
 17 18  1  0
 17 19  1  0
 17 20  1  0
 20 21  1  0
 21 22  1  0
 22 23  1  0
 22 66  2  0
 23 24  1  0
 23 65  1  0
 24 25  1  0
 25 26  1  0
 25 63  1  0
 26 27  1  0
 26 62  2  0
 27 28  1  0
 27 55  1  0
 28 29  1  0
 29 30  1  0
 29 54  2  0
 30 31  1  0
 30 34  1  0
 31 32  1  0
 31 33  1  0
 34 35  1  0
 34 53  1  0
 35 36  1  0
 35 52  2  0
 36 37  1  0
 36 51  1  0
 36 73  1  0
 37 38  1  0
 38 39  1  0
 39 40  1  0
 39 50  1  0
 40 41  1  0
 40 49  2  0
 42 43  1  0
 43 44  1  0
 43 47  1  0
 43 48  1  0
 44 45  1  0
 44 46  1  0
 50 51  1  0
 55 56  1  0
 56 57  1  0
 56 61  1  0
 57 58  1  0
 58 59  1  0
 58 71  1  0
 59 60  1  0
 60 61  1  0
 63 64  1  0
 64 65  1  0
 67 68  2  0
 67 72  1  0
 68 69  1  0
 69 70  2  0
 70 71  1  0
 71 72  2  0
  1 74  1  0
  1 75  1  0
  1 76  1  0
  2 77  1  1
  4 78  1  0
  4 79  1  0
  4 80  1  0
  7 81  1  0
  8 82  1  0
  9 83  1  0
 13 84  1  0
 13 85  1  0
 14 86  1  0
 14 87  1  0
 14 88  1  0
 16 89  1  0
 16 90  1  0
 18 91  1  0
 18 92  1  0
 18 93  1  0
 19 94  1  0
 19 95  1  0
 19 96  1  0
 20 97  1  0
 20 98  1  0
 23 99  1  1
 24100  1  0
 27101  1  6
 28102  1  0
 30103  1  1
 31104  1  0
 32105  1  0
 32106  1  0
 32107  1  0
 33108  1  0
 33109  1  0
 33110  1  0
 37111  1  0
 37112  1  0
 38113  1  0
 38114  1  0
 45115  1  0
 45116  1  0
 45117  1  0
 46118  1  0
 46119  1  0
 46120  1  0
 47121  1  0
 47122  1  0
 47123  1  0
 48124  1  0
 48125  1  0
 48126  1  0
 50127  1  0
 50128  1  0
 51129  1  0
 51130  1  0
 53131  1  0
 53132  1  0
 53133  1  0
 55134  1  0
 55135  1  0
 56136  1  1
 57137  1  0
 57138  1  0
 59139  1  0
 59140  1  0
 60141  1  0
 60142  1  0
 63143  1  0
 63144  1  0
 64145  1  0
 64146  1  0
 65147  1  0
 65148  1  0
 69149  1  0
 70150  1  0
 72151  1  0
 41 42  3  0
M  END
$$$$
