mol_bioactive_24
     RDKit          3D

151157  0  0  0  0  0  0  0  0999 V2000
    3.4226   -2.5986   -2.0589 C   0  0  0  0  0  0  0  0  0  0  0  0
    2.5764   -3.6525   -1.3499 C   0  0  2  0  0  0  0  0  0  0  0  0
    1.4851   -3.0070   -0.6825 O   0  0  0  0  0  0  0  0  0  0  0  0
    0.3539   -3.8611   -0.5666 C   0  0  0  0  0  0  0  0  0  0  0  0
    3.4322   -4.5501   -0.4629 C   0  0  0  0  0  0  0  0  0  0  0  0
    3.6607   -5.7862   -1.0093 N   0  0  0  0  0  0  0  0  0  0  0  0
    4.4666   -6.6442   -0.3526 C   0  0  0  0  0  0  0  0  0  0  0  0
    5.0918   -6.3406    0.8370 C   0  0  0  0  0  0  0  0  0  0  0  0
    4.8610   -5.0876    1.3905 C   0  0  0  0  0  0  0  0  0  0  0  0
    4.0067   -4.1675    0.7632 C   0  0  0  0  0  0  0  0  0  0  0  0
    3.7812   -2.8796    1.4362 C   0  0  0  0  0  0  0  0  0  0  0  0
    4.6510   -1.8022    1.3406 N   0  0  0  0  0  0  0  0  0  0  0  0
    5.9220   -1.7889    0.6282 C   0  0  0  0  0  0  0  0  0  0  0  0
    7.1045   -1.9782    1.5644 C   0  0  0  0  0  0  0  0  0  0  0  0
    2.7614   -2.5060    2.3159 C   0  0  0  0  0  0  0  0  0  0  0  0
    1.6003   -3.3440    2.8037 C   0  0  0  0  0  0  0  0  0  0  0  0
    1.7398   -4.0335    4.1945 C   0  0  0  0  0  0  0  0  0  0  0  0
    2.9833   -4.9399    4.2396 C   0  0  0  0  0  0  0  0  0  0  0  0
    0.5018   -4.9404    4.3840 C   0  0  0  0  0  0  0  0  0  0  0  0
    1.8423   -3.0301    5.3712 C   0  0  0  0  0  0  0  0  0  0  0  0
    0.5903   -2.3796    5.6805 O   0  0  0  0  0  0  0  0  0  0  0  0
   -0.0060   -2.7752    6.8519 C   0  0  0  0  0  0  0  0  0  0  0  0
   -1.1997   -1.8766    7.1963 C   0  0  1  0  0  0  0  0  0  0  0  0
   -2.1846   -1.8544    6.0977 N   0  0  0  0  0  0  0  0  0  0  0  0
   -3.2748   -0.9991    6.4269 N   0  0  0  0  0  0  0  0  0  0  0  0
   -3.3404    0.3686    6.1121 C   0  0  0  0  0  0  0  0  0  0  0  0
   -2.2061    0.9709    5.2629 C   0  0  1  0  0  0  0  0  0  0  0  0
   -2.7300    1.3440    3.9613 N   0  0  0  0  0  0  0  0  0  0  0  0
   -2.7314    0.4443    2.9149 C   0  0  0  0  0  0  0  0  0  0  0  0
   -3.3955    0.9611    1.6117 C   0  0  2  0  0  0  0  0  0  0  0  0
   -4.7961    0.3241    1.4086 C   0  0  0  0  0  0  0  0  0  0  0  0
   -5.4765    0.8846    0.1521 C   0  0  0  0  0  0  0  0  0  0  0  0
   -5.7152    0.5762    2.6131 C   0  0  0  0  0  0  0  0  0  0  0  0
   -2.4364    0.7676    0.4892 N   0  0  0  0  0  0  0  0  0  0  0  0
   -1.4961    1.7867    0.3037 C   0  0  0  0  0  0  0  0  0  0  0  0
   -0.3333    1.6119   -0.7064 C   0  0  0  0  0  0  0  0  0  0  0  0
    0.2943    2.9867   -0.9929 C   0  0  0  0  0  0  0  0  0  0  0  0
    1.5294    2.8717   -1.8709 C   0  0  0  0  0  0  0  0  0  0  0  0
    2.4803    1.9206   -1.3100 N   0  0  0  0  0  0  0  0  0  0  0  0
    3.8589    2.0973   -1.3540 C   0  0  0  0  0  0  0  0  0  0  0  0
    4.3701    3.4394   -1.5366 C   0  0  0  0  0  0  0  0  0  0  0  0
    4.8077    4.5542   -1.6473 C   0  0  0  0  0  0  0  0  0  0  0  0
    5.3509    5.9339   -1.7636 C   0  0  0  0  0  0  0  0  0  0  0  0
    6.1679    6.0255   -3.0017 N   0  0  0  0  0  0  0  0  0  0  0  0
    7.3632    5.1730   -2.9911 C   0  0  0  0  0  0  0  0  0  0  0  0
    6.5529    7.3847   -3.3856 C   0  0  0  0  0  0  0  0  0  0  0  0
    6.1353    6.2588   -0.4736 C   0  0  0  0  0  0  0  0  0  0  0  0
    4.1227    6.8756   -1.8273 C   0  0  0  0  0  0  0  0  0  0  0  0
    4.6787    1.1983   -1.2076 O   0  0  0  0  0  0  0  0  0  0  0  0
    1.9517    0.5915   -1.0444 C   0  0  0  0  0  0  0  0  0  0  0  0
    0.7235    0.6552   -0.1488 C   0  0  0  0  0  0  0  0  0  0  0  0
   -1.5719    2.8257    0.9747 O   0  0  0  0  0  0  0  0  0  0  0  0
   -2.2992   -0.5710   -0.0818 C   0  0  0  0  0  0  0  0  0  0  0  0
   -2.2372   -0.6782    3.0286 O   0  0  0  0  0  0  0  0  0  0  0  0
   -1.5680    2.1612    6.0062 C   0  0  0  0  0  0  0  0  0  0  0  0
   -0.2883    2.7318    5.3579 C   0  0  1  0  0  0  0  0  0  0  0  0
    0.5712    1.6447    4.6865 C   0  0  0  0  0  0  0  0  0  0  0  0
    1.7732    2.1916    4.0278 N   0  0  0  0  0  0  0  0  0  0  0  0
    1.4080    3.3085    3.1132 C   0  0  0  0  0  0  0  0  0  0  0  0
    0.5132    4.3361    3.8322 C   0  0  0  0  0  0  0  0  0  0  0  0
   -0.6655    3.7352    4.3976 O   0  0  0  0  0  0  0  0  0  0  0  0
   -4.2816    1.0817    6.4811 O   0  0  0  0  0  0  0  0  0  0  0  0
   -4.0878   -1.5193    7.5266 C   0  0  0  0  0  0  0  0  0  0  0  0
   -3.2022   -1.6035    8.7731 C   0  0  0  0  0  0  0  0  0  0  0  0
   -1.9090   -2.3793    8.4742 C   0  0  0  0  0  0  0  0  0  0  0  0
    0.4060   -3.6772    7.5734 O   0  0  0  0  0  0  0  0  0  0  0  0
    2.9452   -1.1110    2.5870 C   0  0  0  0  0  0  0  0  0  0  0  0
    4.1270   -0.6998    1.9883 C   0  0  0  0  0  0  0  0  0  0  0  0
    4.5809    0.6248    2.0957 C   0  0  0  0  0  0  0  0  0  0  0  0
    3.7878    1.5521    2.7913 C   0  0  0  0  0  0  0  0  0  0  0  0
    2.5674    1.2032    3.3767 C   0  0  0  0  0  0  0  0  0  0  0  0
    2.1838   -0.1517    3.2901 C   0  0  0  0  0  0  0  0  0  0  0  0
   -0.7781    1.1277   -1.9091 F   0  0  0  0  0  0  0  0  0  0  0  0
    3.8364   -1.8694   -1.3625 H   0  0  0  0  0  0  0  0  0  0  0  0
    4.2515   -3.0549   -2.6111 H   0  0  0  0  0  0  0  0  0  0  0  0
    2.8059   -2.0350   -2.7672 H   0  0  0  0  0  0  0  0  0  0  0  0
    2.1552   -4.2782   -2.1510 H   0  0  0  0  0  0  0  0  0  0  0  0
   -0.4026   -3.3475    0.0335 H   0  0  0  0  0  0  0  0  0  0  0  0
   -0.0701   -4.0638   -1.5547 H   0  0  0  0  0  0  0  0  0  0  0  0
    0.6127   -4.8008   -0.0710 H   0  0  0  0  0  0  0  0  0  0  0  0
    4.6018   -7.6112   -0.8291 H   0  0  0  0  0  0  0  0  0  0  0  0
    5.7378   -7.0591    1.3262 H   0  0  0  0  0  0  0  0  0  0  0  0
    5.3418   -4.8300    2.3310 H   0  0  0  0  0  0  0  0  0  0  0  0
    5.9134   -2.5740   -0.1320 H   0  0  0  0  0  0  0  0  0  0  0  0
    6.0011   -0.8364    0.0962 H   0  0  0  0  0  0  0  0  0  0  0  0
    7.1591   -1.1739    2.3064 H   0  0  0  0  0  0  0  0  0  0  0  0
    7.0349   -2.9255    2.1102 H   0  0  0  0  0  0  0  0  0  0  0  0
    8.0405   -1.9782    0.9971 H   0  0  0  0  0  0  0  0  0  0  0  0
    0.6961   -2.7213    2.7996 H   0  0  0  0  0  0  0  0  0  0  0  0
    1.4138   -4.1243    2.0562 H   0  0  0  0  0  0  0  0  0  0  0  0
    3.0221   -5.5113    5.1749 H   0  0  0  0  0  0  0  0  0  0  0  0
    2.9701   -5.6688    3.4230 H   0  0  0  0  0  0  0  0  0  0  0  0
    3.9072   -4.3570    4.1833 H   0  0  0  0  0  0  0  0  0  0  0  0
    0.5250   -5.4456    5.3555 H   0  0  0  0  0  0  0  0  0  0  0  0
   -0.4304   -4.3685    4.3200 H   0  0  0  0  0  0  0  0  0  0  0  0
    0.4606   -5.7183    3.6119 H   0  0  0  0  0  0  0  0  0  0  0  0
    2.2468   -3.5352    6.2569 H   0  0  0  0  0  0  0  0  0  0  0  0
    2.5694   -2.2433    5.1527 H   0  0  0  0  0  0  0  0  0  0  0  0
   -0.7984   -0.8705    7.3761 H   0  0  0  0  0  0  0  0  0  0  0  0
   -1.7843   -1.6599    5.1737 H   0  0  0  0  0  0  0  0  0  0  0  0
   -1.4343    0.2204    5.1201 H   0  0  0  0  0  0  0  0  0  0  0  0
   -3.2026    2.2373    3.8698 H   0  0  0  0  0  0  0  0  0  0  0  0
   -3.5584    2.0404    1.7306 H   0  0  0  0  0  0  0  0  0  0  0  0
   -4.7026   -0.7629    1.3018 H   0  0  0  0  0  0  0  0  0  0  0  0
   -5.6102    1.9693    0.2249 H   0  0  0  0  0  0  0  0  0  0  0  0
   -4.8966    0.6785   -0.7517 H   0  0  0  0  0  0  0  0  0  0  0  0
   -6.4650    0.4334    0.0144 H   0  0  0  0  0  0  0  0  0  0  0  0
   -5.3484    0.0639    3.5076 H   0  0  0  0  0  0  0  0  0  0  0  0
   -5.7943    1.6453    2.8378 H   0  0  0  0  0  0  0  0  0  0  0  0
   -6.7245    0.1978    2.4179 H   0  0  0  0  0  0  0  0  0  0  0  0
   -0.4379    3.6336   -1.4911 H   0  0  0  0  0  0  0  0  0  0  0  0
    0.5810    3.4825   -0.0573 H   0  0  0  0  0  0  0  0  0  0  0  0
    1.2599    2.5114   -2.8717 H   0  0  0  0  0  0  0  0  0  0  0  0
    1.9751    3.8614   -2.0004 H   0  0  0  0  0  0  0  0  0  0  0  0
    8.1188    5.5215   -2.2774 H   0  0  0  0  0  0  0  0  0  0  0  0
    7.1263    4.1298   -2.7618 H   0  0  0  0  0  0  0  0  0  0  0  0
    7.8263    5.1610   -3.9847 H   0  0  0  0  0  0  0  0  0  0  0  0
    7.1726    7.8770   -2.6290 H   0  0  0  0  0  0  0  0  0  0  0  0
    7.1207    7.3705   -4.3235 H   0  0  0  0  0  0  0  0  0  0  0  0
    5.6803    8.0113   -3.5891 H   0  0  0  0  0  0  0  0  0  0  0  0
    5.4804    6.2064    0.4058 H   0  0  0  0  0  0  0  0  0  0  0  0
    6.9504    5.5487   -0.2929 H   0  0  0  0  0  0  0  0  0  0  0  0
    6.5613    7.2673   -0.4965 H   0  0  0  0  0  0  0  0  0  0  0  0
    3.4393    6.6919   -0.9884 H   0  0  0  0  0  0  0  0  0  0  0  0
    4.4091    7.9316   -1.7767 H   0  0  0  0  0  0  0  0  0  0  0  0
    3.5473    6.7178   -2.7471 H   0  0  0  0  0  0  0  0  0  0  0  0
    1.7068    0.1328   -2.0087 H   0  0  0  0  0  0  0  0  0  0  0  0
    2.7117   -0.0304   -0.5671 H   0  0  0  0  0  0  0  0  0  0  0  0
    1.0188    0.9926    0.8485 H   0  0  0  0  0  0  0  0  0  0  0  0
    0.3333   -0.3594   -0.0342 H   0  0  0  0  0  0  0  0  0  0  0  0
   -1.8055   -1.2258    0.6406 H   0  0  0  0  0  0  0  0  0  0  0  0
   -3.2780   -0.9823   -0.3351 H   0  0  0  0  0  0  0  0  0  0  0  0
   -1.7144   -0.5715   -0.9996 H   0  0  0  0  0  0  0  0  0  0  0  0
   -2.3054    2.9651    6.1276 H   0  0  0  0  0  0  0  0  0  0  0  0
   -1.3060    1.8180    7.0161 H   0  0  0  0  0  0  0  0  0  0  0  0
    0.2909    3.2341    6.1444 H   0  0  0  0  0  0  0  0  0  0  0  0
    0.8554    0.9074    5.4482 H   0  0  0  0  0  0  0  0  0  0  0  0
   -0.0303    1.1723    3.9031 H   0  0  0  0  0  0  0  0  0  0  0  0
    2.2943    3.8299    2.7393 H   0  0  0  0  0  0  0  0  0  0  0  0
    0.8550    2.9047    2.2584 H   0  0  0  0  0  0  0  0  0  0  0  0
    1.0691    4.8444    4.6295 H   0  0  0  0  0  0  0  0  0  0  0  0
    0.1822    5.0995    3.1204 H   0  0  0  0  0  0  0  0  0  0  0  0
   -4.9514   -0.8760    7.7170 H   0  0  0  0  0  0  0  0  0  0  0  0
   -4.4564   -2.5126    7.2421 H   0  0  0  0  0  0  0  0  0  0  0  0
   -2.9361   -0.5902    9.1012 H   0  0  0  0  0  0  0  0  0  0  0  0
   -3.7468   -2.0806    9.5938 H   0  0  0  0  0  0  0  0  0  0  0  0
   -2.1536   -3.4442    8.3689 H   0  0  0  0  0  0  0  0  0  0  0  0
   -1.2307   -2.2994    9.3323 H   0  0  0  0  0  0  0  0  0  0  0  0
    5.5073    0.9455    1.6286 H   0  0  0  0  0  0  0  0  0  0  0  0
    4.1545    2.5718    2.8696 H   0  0  0  0  0  0  0  0  0  0  0  0
    1.2567   -0.5105    3.7185 H   0  0  0  0  0  0  0  0  0  0  0  0
  1  2  1  0
  2  3  1  0
  2  5  1  0
  3  4  1  0
  5  6  2  0
  5 10  1  0
  6  7  1  0
  7  8  2  0
  8  9  1  0
  9 10  2  0
 10 11  1  0
 11 12  1  0
 11 15  2  0
 12 13  1  0
 12 68  1  0
 13 14  1  0
 15 16  1  0
 15 67  1  0
 16 17  1  0
 17 18  1  0
 17 19  1  0
 17 20  1  0
 20 21  1  0
 21 22  1  0
 22 23  1  0
 22 66  2  0
 23 24  1  0
 23 65  1  0
 24 25  1  0
 25 26  1  0
 25 63  1  0
 26 27  1  0
 26 62  2  0
 27 28  1  0
 27 55  1  0
 28 29  1  0
 29 30  1  0
 29 54  2  0
 30 31  1  0
 30 34  1  0
 31 32  1  0
 31 33  1  0
 34 35  1  0
 34 53  1  0
 35 36  1  0
 35 52  2  0
 36 37  1  0
 36 51  1  0
 36 73  1  0
 37 38  1  0
 38 39  1  0
 39 40  1  0
 39 50  1  0
 40 41  1  0
 40 49  2  0
 42 43  1  0
 43 44  1  0
 43 47  1  0
 43 48  1  0
 44 45  1  0
 44 46  1  0
 50 51  1  0
 55 56  1  0
 56 57  1  0
 56 61  1  0
 57 58  1  0
 58 59  1  0
 58 71  1  0
 59 60  1  0
 60 61  1  0
 63 64  1  0
 64 65  1  0
 67 68  2  0
 67 72  1  0
 68 69  1  0
 69 70  2  0
 70 71  1  0
 71 72  2  0
 41 42  3  0
  1 74  1  0
  1 75  1  0
  1 76  1  0
  2 77  1  6
  4 78  1  0
  4 79  1  0
  4 80  1  0
  7 81  1  0
  8 82  1  0
  9 83  1  0
 13 84  1  0
 13 85  1  0
 14 86  1  0
 14 87  1  0
 14 88  1  0
 16 89  1  0
 16 90  1  0
 18 91  1  0
 18 92  1  0
 18 93  1  0
 19 94  1  0
 19 95  1  0
 19 96  1  0
 20 97  1  0
 20 98  1  0
 23 99  1  1
 24100  1  0
 27101  1  6
 28102  1  0
 30103  1  1
 31104  1  0
 32105  1  0
 32106  1  0
 32107  1  0
 33108  1  0
 33109  1  0
 33110  1  0
 37111  1  0
 37112  1  0
 38113  1  0
 38114  1  0
 45115  1  0
 45116  1  0
 45117  1  0
 46118  1  0
 46119  1  0
 46120  1  0
 47121  1  0
 47122  1  0
 47123  1  0
 48124  1  0
 48125  1  0
 48126  1  0
 50127  1  0
 50128  1  0
 51129  1  0
 51130  1  0
 53131  1  0
 53132  1  0
 53133  1  0
 55134  1  0
 55135  1  0
 56136  1  1
 57137  1  0
 57138  1  0
 59139  1  0
 59140  1  0
 60141  1  0
 60142  1  0
 63143  1  0
 63144  1  0
 64145  1  0
 64146  1  0
 65147  1  0
 65148  1  0
 69149  1  0
 70150  1  0
 72151  1  0
M  END
$$$$
