 xtb: 6.7.1 (edcfbbe)
          08232517563D

151157  0     0  0            999 V2000
   -2.8758   -6.9694    2.1055 C   0  0  0  0  0  0  0  0  0  0  0  0
   -3.6296   -6.0027    3.0168 C   0  0  0  0  0  0  0  0  0  0  0  0
   -4.0391   -6.6262    4.2290 O   0  0  0  0  0  0  0  0  0  0  0  0
   -3.0981   -6.5693    5.2716 C   0  0  0  0  0  0  0  0  0  0  0  0
   -4.9199   -5.5263    2.3856 C   0  0  0  0  0  0  0  0  0  0  0  0
   -5.6828   -6.4563    1.8359 N   0  0  0  0  0  0  0  0  0  0  0  0
   -6.8942   -6.1377    1.4231 C   0  0  0  0  0  0  0  0  0  0  0  0
   -7.4324   -4.8683    1.5676 C   0  0  0  0  0  0  0  0  0  0  0  0
   -6.6241   -3.8808    2.1006 C   0  0  0  0  0  0  0  0  0  0  0  0
   -5.3245   -4.1903    2.4960 C   0  0  0  0  0  0  0  0  0  0  0  0
   -4.4284   -3.1249    2.9685 C   0  0  0  0  0  0  0  0  0  0  0  0
   -4.5774   -2.5676    4.2146 N   0  0  0  0  0  0  0  0  0  0  0  0
   -5.4434   -3.0516    5.2572 C   0  0  0  0  0  0  0  0  0  0  0  0
   -6.6777   -2.1697    5.4348 C   0  0  0  0  0  0  0  0  0  0  0  0
   -3.4140   -2.4944    2.2799 C   0  0  0  0  0  0  0  0  0  0  0  0
   -2.8404   -2.8218    0.9358 C   0  0  0  0  0  0  0  0  0  0  0  0
   -3.4815   -2.1232   -0.2869 C   0  0  0  0  0  0  0  0  0  0  0  0
   -2.7067   -2.5371   -1.5406 C   0  0  0  0  0  0  0  0  0  0  0  0
   -4.9407   -2.5576   -0.4336 C   0  0  0  0  0  0  0  0  0  0  0  0
   -3.4771   -0.5866   -0.1333 C   0  0  0  0  0  0  0  0  0  0  0  0
   -2.3144    0.0791   -0.6458 O   0  0  0  0  0  0  0  0  0  0  0  0
   -2.4272    0.6248   -1.8551 C   0  0  0  0  0  0  0  0  0  0  0  0
   -1.2178    1.4858   -2.2031 C   0  0  0  0  0  0  0  0  0  0  0  0
    0.0463    0.7663   -2.1180 N   0  0  0  0  0  0  0  0  0  0  0  0
    1.1066    1.6739   -2.2347 N   0  0  0  0  0  0  0  0  0  0  0  0
    1.6667    2.3800   -1.2259 C   0  0  0  0  0  0  0  0  0  0  0  0
    1.2372    1.9842    0.2003 C   0  0  0  0  0  0  0  0  0  0  0  0
    2.2728    1.1549    0.7830 N   0  0  0  0  0  0  0  0  0  0  0  0
    2.2845   -0.1731    0.6147 C   0  0  0  0  0  0  0  0  0  0  0  0
    3.4735   -0.8962    1.2529 C   0  0  0  0  0  0  0  0  0  0  0  0
    4.5486   -1.2305    0.2076 C   0  0  0  0  0  0  0  0  0  0  0  0
    5.7756   -1.8273    0.8954 C   0  0  0  0  0  0  0  0  0  0  0  0
    4.9468    0.0333   -0.5545 C   0  0  0  0  0  0  0  0  0  0  0  0
    2.9570   -2.0595    1.9788 N   0  0  0  0  0  0  0  0  0  0  0  0
    2.5343   -1.7943    3.2273 C   0  0  0  0  0  0  0  0  0  0  0  0
    1.8626   -2.8883    4.0775 C   0  0  0  0  0  0  0  0  0  0  0  0
    0.3993   -3.0729    3.6625 C   0  0  0  0  0  0  0  0  0  0  0  0
   -0.2975   -4.0707    4.5903 C   0  0  0  0  0  0  0  0  0  0  0  0
   -0.1956   -3.6125    5.9531 N   0  0  0  0  0  0  0  0  0  0  0  0
   -1.2989   -3.1917    6.6148 C   0  0  0  0  0  0  0  0  0  0  0  0
   -1.0497   -2.4042    7.7943 C   0  0  0  0  0  0  0  0  0  0  0  0
   -1.0133   -1.5917    8.6828 C   0  0  0  0  0  0  0  0  0  0  0  0
   -0.8784   -0.7124    9.8430 C   0  0  0  0  0  0  0  0  0  0  0  0
   -0.6685   -1.4863   11.0776 N   0  0  0  0  0  0  0  0  0  0  0  0
    0.5404   -2.2878   11.0661 C   0  0  0  0  0  0  0  0  0  0  0  0
   -1.8071   -2.3050   11.4539 C   0  0  0  0  0  0  0  0  0  0  0  0
   -2.1547    0.1361    9.9590 C   0  0  0  0  0  0  0  0  0  0  0  0
    0.3108    0.2358    9.6118 C   0  0  0  0  0  0  0  0  0  0  0  0
   -2.4337   -3.4382    6.2389 O   0  0  0  0  0  0  0  0  0  0  0  0
    1.1576   -3.4680    6.4253 C   0  0  0  0  0  0  0  0  0  0  0  0
    1.9380   -2.4864    5.5540 C   0  0  0  0  0  0  0  0  0  0  0  0
    2.6581   -0.6809    3.7209 O   0  0  0  0  0  0  0  0  0  0  0  0
    2.6777   -3.2505    1.2064 C   0  0  0  0  0  0  0  0  0  0  0  0
    1.4043   -0.7679    0.0084 O   0  0  0  0  0  0  0  0  0  0  0  0
    0.9899    3.2341    1.0423 C   0  0  0  0  0  0  0  0  0  0  0  0
    0.5100    2.9418    2.4730 C   0  0  0  0  0  0  0  0  0  0  0  0
   -0.2921    1.6419    2.5673 C   0  0  0  0  0  0  0  0  0  0  0  0
   -0.7409    1.4171    3.9262 N   0  0  0  0  0  0  0  0  0  0  0  0
    0.4125    1.3858    4.8161 C   0  0  0  0  0  0  0  0  0  0  0  0
    1.2084    2.6823    4.6631 C   0  0  0  0  0  0  0  0  0  0  0  0
    1.6310    2.8806    3.3334 O   0  0  0  0  0  0  0  0  0  0  0  0
    2.5227    3.2237   -1.4187 O   0  0  0  0  0  0  0  0  0  0  0  0
    1.1947    2.1595   -3.5999 C   0  0  0  0  0  0  0  0  0  0  0  0
   -0.0976    2.9127   -3.9302 C   0  0  0  0  0  0  0  0  0  0  0  0
   -1.3102    2.0302   -3.6329 C   0  0  0  0  0  0  0  0  0  0  0  0
   -3.3977    0.5367   -2.5598 O   0  0  0  0  0  0  0  0  0  0  0  0
   -2.9160   -1.4872    3.1580 C   0  0  0  0  0  0  0  0  0  0  0  0
   -3.6559   -1.5695    4.3577 C   0  0  0  0  0  0  0  0  0  0  0  0
   -3.3749   -0.7159    5.4202 C   0  0  0  0  0  0  0  0  0  0  0  0
   -2.3849    0.2254    5.2565 C   0  0  0  0  0  0  0  0  0  0  0  0
   -1.6562    0.3457    4.0574 C   0  0  0  0  0  0  0  0  0  0  0  0
   -1.9091   -0.5321    3.0175 C   0  0  0  0  0  0  0  0  0  0  0  0
    2.5410   -4.1010    3.9374 F   0  0  0  0  0  0  0  0  0  0  0  0
   -1.9947   -7.3594    2.6094 H   0  0  0  0  0  0  0  0  0  0  0  0
   -3.5358   -7.7916    1.8462 H   0  0  0  0  0  0  0  0  0  0  0  0
   -2.5655   -6.4583    1.1977 H   0  0  0  0  0  0  0  0  0  0  0  0
   -3.0023   -5.1295    3.2495 H   0  0  0  0  0  0  0  0  0  0  0  0
   -3.5304   -7.1355    6.0949 H   0  0  0  0  0  0  0  0  0  0  0  0
   -2.1429   -7.0262    4.9874 H   0  0  0  0  0  0  0  0  0  0  0  0
   -2.9258   -5.5363    5.5945 H   0  0  0  0  0  0  0  0  0  0  0  0
   -7.4596   -6.9419    0.9708 H   0  0  0  0  0  0  0  0  0  0  0  0
   -8.4443   -4.6553    1.2600 H   0  0  0  0  0  0  0  0  0  0  0  0
   -6.9900   -2.8686    2.2060 H   0  0  0  0  0  0  0  0  0  0  0  0
   -5.7424   -4.0733    5.0086 H   0  0  0  0  0  0  0  0  0  0  0  0
   -4.8615   -3.0802    6.1825 H   0  0  0  0  0  0  0  0  0  0  0  0
   -7.2707   -2.5280    6.2719 H   0  0  0  0  0  0  0  0  0  0  0  0
   -6.3840   -1.1407    5.6283 H   0  0  0  0  0  0  0  0  0  0  0  0
   -7.2966   -2.1892    4.5408 H   0  0  0  0  0  0  0  0  0  0  0  0
   -1.7801   -2.5577    0.9517 H   0  0  0  0  0  0  0  0  0  0  0  0
   -2.9170   -3.8999    0.7711 H   0  0  0  0  0  0  0  0  0  0  0  0
   -1.6551   -2.2706   -1.4540 H   0  0  0  0  0  0  0  0  0  0  0  0
   -2.7797   -3.6130   -1.6818 H   0  0  0  0  0  0  0  0  0  0  0  0
   -3.1170   -2.0468   -2.4203 H   0  0  0  0  0  0  0  0  0  0  0  0
   -5.5339   -2.1723    0.3905 H   0  0  0  0  0  0  0  0  0  0  0  0
   -5.3549   -2.1806   -1.3660 H   0  0  0  0  0  0  0  0  0  0  0  0
   -5.0165   -3.6423   -0.4362 H   0  0  0  0  0  0  0  0  0  0  0  0
   -4.3418   -0.1739   -0.6623 H   0  0  0  0  0  0  0  0  0  0  0  0
   -3.5317   -0.3140    0.9222 H   0  0  0  0  0  0  0  0  0  0  0  0
   -1.2486    2.3338   -1.4884 H   0  0  0  0  0  0  0  0  0  0  0  0
    0.1578    0.1508   -1.3144 H   0  0  0  0  0  0  0  0  0  0  0  0
    0.3237    1.3872    0.1552 H   0  0  0  0  0  0  0  0  0  0  0  0
    2.9618    1.6216    1.3520 H   0  0  0  0  0  0  0  0  0  0  0  0
    3.9170   -0.2411    2.0102 H   0  0  0  0  0  0  0  0  0  0  0  0
    4.1403   -1.9435   -0.5134 H   0  0  0  0  0  0  0  0  0  0  0  0
    5.5139   -2.6800    1.5164 H   0  0  0  0  0  0  0  0  0  0  0  0
    6.5017   -2.1509    0.1536 H   0  0  0  0  0  0  0  0  0  0  0  0
    6.2459   -1.0804    1.5315 H   0  0  0  0  0  0  0  0  0  0  0  0
    5.3036    0.8015    0.1281 H   0  0  0  0  0  0  0  0  0  0  0  0
    5.7480   -0.1985   -1.2521 H   0  0  0  0  0  0  0  0  0  0  0  0
    4.1120    0.4365   -1.1223 H   0  0  0  0  0  0  0  0  0  0  0  0
   -0.1006   -2.1039    3.7333 H   0  0  0  0  0  0  0  0  0  0  0  0
    0.3223   -3.4210    2.6331 H   0  0  0  0  0  0  0  0  0  0  0  0
   -1.3555   -4.1371    4.3332 H   0  0  0  0  0  0  0  0  0  0  0  0
    0.1662   -5.0592    4.4972 H   0  0  0  0  0  0  0  0  0  0  0  0
    0.6361   -2.7730   12.0365 H   0  0  0  0  0  0  0  0  0  0  0  0
    0.5334   -3.0673   10.2887 H   0  0  0  0  0  0  0  0  0  0  0  0
    1.4122   -1.6548   10.9247 H   0  0  0  0  0  0  0  0  0  0  0  0
   -1.5462   -2.8590   12.3543 H   0  0  0  0  0  0  0  0  0  0  0  0
   -2.6607   -1.6746   11.6892 H   0  0  0  0  0  0  0  0  0  0  0  0
   -2.0948   -3.0253   10.6744 H   0  0  0  0  0  0  0  0  0  0  0  0
   -2.1431    0.6803   10.8997 H   0  0  0  0  0  0  0  0  0  0  0  0
   -2.1948    0.8481    9.1382 H   0  0  0  0  0  0  0  0  0  0  0  0
   -3.0481   -0.4796    9.9070 H   0  0  0  0  0  0  0  0  0  0  0  0
    0.5339    0.7614   10.5364 H   0  0  0  0  0  0  0  0  0  0  0  0
    1.1961   -0.2998    9.2795 H   0  0  0  0  0  0  0  0  0  0  0  0
    0.0573    0.9626    8.8440 H   0  0  0  0  0  0  0  0  0  0  0  0
    1.1454   -3.1224    7.4605 H   0  0  0  0  0  0  0  0  0  0  0  0
    1.6414   -4.4522    6.3854 H   0  0  0  0  0  0  0  0  0  0  0  0
    2.9838   -2.4614    5.8630 H   0  0  0  0  0  0  0  0  0  0  0  0
    1.5251   -1.4836    5.6574 H   0  0  0  0  0  0  0  0  0  0  0  0
    2.2072   -4.0135    1.8126 H   0  0  0  0  0  0  0  0  0  0  0  0
    2.0180   -2.9890    0.3764 H   0  0  0  0  0  0  0  0  0  0  0  0
    3.6046   -3.6670    0.8121 H   0  0  0  0  0  0  0  0  0  0  0  0
    1.9124    3.8143    1.0988 H   0  0  0  0  0  0  0  0  0  0  0  0
    0.2422    3.8428    0.5314 H   0  0  0  0  0  0  0  0  0  0  0  0
   -0.1362    3.7717    2.8104 H   0  0  0  0  0  0  0  0  0  0  0  0
   -1.1688    1.7114    1.9194 H   0  0  0  0  0  0  0  0  0  0  0  0
    0.3554    0.8129    2.2470 H   0  0  0  0  0  0  0  0  0  0  0  0
    0.0770    1.2747    5.8476 H   0  0  0  0  0  0  0  0  0  0  0  0
    1.0825    0.5513    4.5585 H   0  0  0  0  0  0  0  0  0  0  0  0
    0.5907    3.5364    4.9828 H   0  0  0  0  0  0  0  0  0  0  0  0
    2.1161    2.6396    5.2666 H   0  0  0  0  0  0  0  0  0  0  0  0
    2.0654    2.8107   -3.6739 H   0  0  0  0  0  0  0  0  0  0  0  0
    1.3124    1.2940   -4.2545 H   0  0  0  0  0  0  0  0  0  0  0  0
   -0.1416    3.8178   -3.3195 H   0  0  0  0  0  0  0  0  0  0  0  0
   -0.0954    3.2091   -4.9787 H   0  0  0  0  0  0  0  0  0  0  0  0
   -1.3290    1.1800   -4.3154 H   0  0  0  0  0  0  0  0  0  0  0  0
   -2.2376    2.5885   -3.7580 H   0  0  0  0  0  0  0  0  0  0  0  0
   -3.9123   -0.7853    6.3529 H   0  0  0  0  0  0  0  0  0  0  0  0
   -2.1697    0.9132    6.0603 H   0  0  0  0  0  0  0  0  0  0  0  0
   -1.3578   -0.4998    2.0919 H   0  0  0  0  0  0  0  0  0  0  0  0
  1  2  1  0  0  0  0
  2  3  1  0  0  0  0
  3  4  1  0  0  0  0
  2  5  1  0  0  0  0
  5  6  4  0  0  0  0
  6  7  4  0  0  0  0
  7  8  4  0  0  0  0
  8  9  4  0  0  0  0
  5 10  4  0  0  0  0
  9 10  4  0  0  0  0
 10 11  1  0  0  0  0
 11 12  1  0  0  0  0
 12 13  1  0  0  0  0
 13 14  1  0  0  0  0
 11 15  2  0  0  0  0
 15 16  1  0  0  0  0
 16 17  1  0  0  0  0
 17 18  1  0  0  0  0
 17 19  1  0  0  0  0
 17 20  1  0  0  0  0
 20 21  1  0  0  0  0
 21 22  1  0  0  0  0
 22 23  1  0  0  0  0
 23 24  1  0  0  0  0
 24 25  1  0  0  0  0
 25 26  4  0  0  0  0
 26 27  1  0  0  0  0
 27 28  1  0  0  0  0
 28 29  4  0  0  0  0
 29 30  1  0  0  0  0
 30 31  1  0  0  0  0
 31 32  1  0  0  0  0
 31 33  1  0  0  0  0
 30 34  1  0  0  0  0
 34 35  4  0  0  0  0
 35 36  1  0  0  0  0
 36 37  1  0  0  0  0
 37 38  1  0  0  0  0
 38 39  1  0  0  0  0
 39 40  4  0  0  0  0
 40 41  1  0  0  0  0
 41 42  3  0  0  0  0
 42 43  1  0  0  0  0
 43 44  1  0  0  0  0
 44 45  1  0  0  0  0
 44 46  1  0  0  0  0
 43 47  1  0  0  0  0
 43 48  1  0  0  0  0
 40 49  2  0  0  0  0
 39 50  1  0  0  0  0
 36 51  1  0  0  0  0
 50 51  1  0  0  0  0
 35 52  2  0  0  0  0
 34 53  1  0  0  0  0
 29 54  2  0  0  0  0
 27 55  1  0  0  0  0
 55 56  1  0  0  0  0
 56 57  1  0  0  0  0
 57 58  1  0  0  0  0
 58 59  1  0  0  0  0
 59 60  1  0  0  0  0
 56 61  1  0  0  0  0
 60 61  1  0  0  0  0
 26 62  2  0  0  0  0
 25 63  1  0  0  0  0
 63 64  1  0  0  0  0
 23 65  1  0  0  0  0
 64 65  1  0  0  0  0
 22 66  2  0  0  0  0
 15 67  4  0  0  0  0
 12 68  1  0  0  0  0
 67 68  4  0  0  0  0
 68 69  4  0  0  0  0
 69 70  2  0  0  0  0
 58 71  1  0  0  0  0
 70 71  4  0  0  0  0
 67 72  4  0  0  0  0
 71 72  4  0  0  0  0
 36 73  1  0  0  0  0
  1 74  1  0  0  0  0
  1 75  1  0  0  0  0
  1 76  1  0  0  0  0
  2 77  1  0  0  0  0
  4 78  1  0  0  0  0
  4 79  1  0  0  0  0
  4 80  1  0  0  0  0
  7 81  1  0  0  0  0
  8 82  1  0  0  0  0
  9 83  1  0  0  0  0
 13 84  1  0  0  0  0
 13 85  1  0  0  0  0
 14 86  1  0  0  0  0
 14 87  1  0  0  0  0
 14 88  1  0  0  0  0
 16 89  1  0  0  0  0
 16 90  1  0  0  0  0
 18 91  1  0  0  0  0
 18 92  1  0  0  0  0
 18 93  1  0  0  0  0
 19 94  1  0  0  0  0
 19 95  1  0  0  0  0
 19 96  1  0  0  0  0
 20 97  1  0  0  0  0
 20 98  1  0  0  0  0
 23 99  1  0  0  0  0
 24100  1  0  0  0  0
 27101  1  0  0  0  0
 28102  1  0  0  0  0
 30103  1  0  0  0  0
 31104  1  0  0  0  0
 32105  1  0  0  0  0
 32106  1  0  0  0  0
 32107  1  0  0  0  0
 33108  1  0  0  0  0
 33109  1  0  0  0  0
 33110  1  0  0  0  0
 37111  1  0  0  0  0
 37112  1  0  0  0  0
 38113  1  0  0  0  0
 38114  1  0  0  0  0
 45115  1  0  0  0  0
 45116  1  0  0  0  0
 45117  1  0  0  0  0
 46118  1  0  0  0  0
 46119  1  0  0  0  0
 46120  1  0  0  0  0
 47121  1  0  0  0  0
 47122  1  0  0  0  0
 47123  1  0  0  0  0
 48124  1  0  0  0  0
 48125  1  0  0  0  0
 48126  1  0  0  0  0
 50127  1  0  0  0  0
 50128  1  0  0  0  0
 51129  1  0  0  0  0
 51130  1  0  0  0  0
 53131  1  0  0  0  0
 53132  1  0  0  0  0
 53133  1  0  0  0  0
 55134  1  0  0  0  0
 55135  1  0  0  0  0
 56136  1  0  0  0  0
 57137  1  0  0  0  0
 57138  1  0  0  0  0
 59139  1  0  0  0  0
 59140  1  0  0  0  0
 60141  1  0  0  0  0
 60142  1  0  0  0  0
 63143  1  0  0  0  0
 63144  1  0  0  0  0
 64145  1  0  0  0  0
 64146  1  0  0  0  0
 65147  1  0  0  0  0
 65148  1  0  0  0  0
 69149  1  0  0  0  0
 70150  1  0  0  0  0
 72151  1  0  0  0  0
M  END
$$$$
