 xtb: 6.7.1 (edcfbbe)
          08232518043D

151157  0     0  0            999 V2000
    4.2871    1.5805   -3.0562 C   0  0  0  0  0  0  0  0  0  0  0  0
    3.1239    2.2415   -3.7900 C   0  0  0  0  0  0  0  0  0  0  0  0
    3.4615    2.2075   -5.1651 O   0  0  0  0  0  0  0  0  0  0  0  0
    2.5096    2.7911   -6.0206 C   0  0  0  0  0  0  0  0  0  0  0  0
    2.9149    3.6626   -3.3022 C   0  0  0  0  0  0  0  0  0  0  0  0
    3.9843    4.4419   -3.3569 N   0  0  0  0  0  0  0  0  0  0  0  0
    3.8831    5.7171   -3.0401 C   0  0  0  0  0  0  0  0  0  0  0  0
    2.6871    6.3052   -2.6583 C   0  0  0  0  0  0  0  0  0  0  0  0
    1.5694    5.4965   -2.5760 C   0  0  0  0  0  0  0  0  0  0  0  0
    1.6625    4.1389   -2.8857 C   0  0  0  0  0  0  0  0  0  0  0  0
    0.4679    3.2951   -2.7496 C   0  0  0  0  0  0  0  0  0  0  0  0
   -0.6376    3.5047   -3.5426 N   0  0  0  0  0  0  0  0  0  0  0  0
   -0.7355    4.4030   -4.6624 C   0  0  0  0  0  0  0  0  0  0  0  0
   -1.6707    5.5785   -4.3814 C   0  0  0  0  0  0  0  0  0  0  0  0
    0.2105    2.2979   -1.8317 C   0  0  0  0  0  0  0  0  0  0  0  0
    1.1105    1.7313   -0.7787 C   0  0  0  0  0  0  0  0  0  0  0  0
    1.0873    2.4448    0.5936 C   0  0  0  0  0  0  0  0  0  0  0  0
    2.1136    1.7715    1.5083 C   0  0  0  0  0  0  0  0  0  0  0  0
    1.4559    3.9200    0.4268 C   0  0  0  0  0  0  0  0  0  0  0  0
   -0.3142    2.3959    1.2352 C   0  0  0  0  0  0  0  0  0  0  0  0
   -0.6020    1.2043    1.9810 O   0  0  0  0  0  0  0  0  0  0  0  0
   -0.4687    1.2860    3.3036 C   0  0  0  0  0  0  0  0  0  0  0  0
   -1.0097    0.0493    4.0114 C   0  0  0  0  0  0  0  0  0  0  0  0
   -0.4839   -1.2085    3.4991 N   0  0  0  0  0  0  0  0  0  0  0  0
   -1.2208   -2.2688    4.0422 N   0  0  0  0  0  0  0  0  0  0  0  0
   -2.3851   -2.7594    3.5576 C   0  0  0  0  0  0  0  0  0  0  0  0
   -2.7949   -2.2702    2.1561 C   0  0  0  0  0  0  0  0  0  0  0  0
   -2.5037   -3.3181    1.1991 N   0  0  0  0  0  0  0  0  0  0  0  0
   -1.2950   -3.4255    0.6322 C   0  0  0  0  0  0  0  0  0  0  0  0
   -1.1427   -4.5994   -0.3392 C   0  0  0  0  0  0  0  0  0  0  0  0
   -0.5130   -5.8235    0.3444 C   0  0  0  0  0  0  0  0  0  0  0  0
   -0.4903   -7.0032   -0.6270 C   0  0  0  0  0  0  0  0  0  0  0  0
   -1.3097   -6.2017    1.5927 C   0  0  0  0  0  0  0  0  0  0  0  0
   -0.4057   -4.1239   -1.5123 N   0  0  0  0  0  0  0  0  0  0  0  0
   -1.1692   -3.5657   -2.4676 C   0  0  0  0  0  0  0  0  0  0  0  0
   -0.5242   -2.9072   -3.7001 C   0  0  0  0  0  0  0  0  0  0  0  0
    0.0221   -1.5176   -3.3535 C   0  0  0  0  0  0  0  0  0  0  0  0
    0.5715   -0.8443   -4.6124 C   0  0  0  0  0  0  0  0  0  0  0  0
   -0.4649   -0.7630   -5.6114 N   0  0  0  0  0  0  0  0  0  0  0  0
   -0.9646    0.4364   -5.9721 C   0  0  0  0  0  0  0  0  0  0  0  0
   -2.1442    0.4209   -6.7961 C   0  0  0  0  0  0  0  0  0  0  0  0
   -3.1694    0.6100   -7.3993 C   0  0  0  0  0  0  0  0  0  0  0  0
   -4.3758    0.9360   -8.1559 C   0  0  0  0  0  0  0  0  0  0  0  0
   -4.2776    2.2888   -8.7311 N   0  0  0  0  0  0  0  0  0  0  0  0
   -3.2389    2.4173   -9.7375 C   0  0  0  0  0  0  0  0  0  0  0  0
   -4.1265    3.3315   -7.7316 C   0  0  0  0  0  0  0  0  0  0  0  0
   -4.5791   -0.1019   -9.2704 C   0  0  0  0  0  0  0  0  0  0  0  0
   -5.5783    0.8624   -7.1988 C   0  0  0  0  0  0  0  0  0  0  0  0
   -0.4649    1.5003   -5.6354 O   0  0  0  0  0  0  0  0  0  0  0  0
   -1.0004   -2.0373   -6.0149 C   0  0  0  0  0  0  0  0  0  0  0  0
   -1.5725   -2.7851   -4.8112 C   0  0  0  0  0  0  0  0  0  0  0  0
   -2.3909   -3.5533   -2.3850 O   0  0  0  0  0  0  0  0  0  0  0  0
    1.0341   -4.0384   -1.3962 C   0  0  0  0  0  0  0  0  0  0  0  0
   -0.3926   -2.6333    0.8608 O   0  0  0  0  0  0  0  0  0  0  0  0
   -4.2746   -1.8961    2.1184 C   0  0  0  0  0  0  0  0  0  0  0  0
   -4.7447   -1.3905    0.7448 C   0  0  0  0  0  0  0  0  0  0  0  0
   -3.6418   -0.6432   -0.0084 C   0  0  0  0  0  0  0  0  0  0  0  0
   -4.1228   -0.1632   -1.2881 N   0  0  0  0  0  0  0  0  0  0  0  0
   -4.6323   -1.2854   -2.0682 C   0  0  0  0  0  0  0  0  0  0  0  0
   -5.6954   -2.0318   -1.2619 C   0  0  0  0  0  0  0  0  0  0  0  0
   -5.1940   -2.4883   -0.0256 O   0  0  0  0  0  0  0  0  0  0  0  0
   -3.0301   -3.6071    4.1469 O   0  0  0  0  0  0  0  0  0  0  0  0
   -0.8909   -2.4285    5.4469 C   0  0  0  0  0  0  0  0  0  0  0  0
   -1.2966   -1.1519    6.1901 C   0  0  0  0  0  0  0  0  0  0  0  0
   -0.6823    0.0715    5.5090 C   0  0  0  0  0  0  0  0  0  0  0  0
   -0.0654    2.2535    3.8932 O   0  0  0  0  0  0  0  0  0  0  0  0
   -1.1196    1.8584   -2.0922 C   0  0  0  0  0  0  0  0  0  0  0  0
   -1.6092    2.6174   -3.1769 C   0  0  0  0  0  0  0  0  0  0  0  0
   -2.8844    2.3794   -3.6815 C   0  0  0  0  0  0  0  0  0  0  0  0
   -3.6675    1.4320   -3.0626 C   0  0  0  0  0  0  0  0  0  0  0  0
   -3.2147    0.6943   -1.9512 C   0  0  0  0  0  0  0  0  0  0  0  0
   -1.9228    0.8885   -1.4923 C   0  0  0  0  0  0  0  0  0  0  0  0
    0.5119   -3.7057   -4.1889 F   0  0  0  0  0  0  0  0  0  0  0  0
    4.0901    1.5178   -1.9897 H   0  0  0  0  0  0  0  0  0  0  0  0
    4.4454    0.5827   -3.4550 H   0  0  0  0  0  0  0  0  0  0  0  0
    5.1790    2.1767   -3.2223 H   0  0  0  0  0  0  0  0  0  0  0  0
    2.1874    1.6806   -3.6316 H   0  0  0  0  0  0  0  0  0  0  0  0
    1.5074    2.3845   -5.8492 H   0  0  0  0  0  0  0  0  0  0  0  0
    2.4776    3.8816   -5.9039 H   0  0  0  0  0  0  0  0  0  0  0  0
    2.8310    2.5548   -7.0335 H   0  0  0  0  0  0  0  0  0  0  0  0
    4.7999    6.2886   -3.1035 H   0  0  0  0  0  0  0  0  0  0  0  0
    2.6335    7.3571   -2.4247 H   0  0  0  0  0  0  0  0  0  0  0  0
    0.6205    5.9065   -2.2598 H   0  0  0  0  0  0  0  0  0  0  0  0
    0.2651    4.7713   -4.8988 H   0  0  0  0  0  0  0  0  0  0  0  0
   -1.0980    3.8311   -5.5216 H   0  0  0  0  0  0  0  0  0  0  0  0
   -1.2879    6.1938   -3.5706 H   0  0  0  0  0  0  0  0  0  0  0  0
   -1.7602    6.1970   -5.2706 H   0  0  0  0  0  0  0  0  0  0  0  0
   -2.6590    5.2230   -4.1020 H   0  0  0  0  0  0  0  0  0  0  0  0
    0.8367    0.6856   -0.6194 H   0  0  0  0  0  0  0  0  0  0  0  0
    2.1403    1.7592   -1.1375 H   0  0  0  0  0  0  0  0  0  0  0  0
    2.0884    2.2165    2.5002 H   0  0  0  0  0  0  0  0  0  0  0  0
    1.9117    0.7061    1.6009 H   0  0  0  0  0  0  0  0  0  0  0  0
    3.1138    1.8981    1.1005 H   0  0  0  0  0  0  0  0  0  0  0  0
    1.5656    4.3944    1.3994 H   0  0  0  0  0  0  0  0  0  0  0  0
    2.3957    4.0163   -0.1112 H   0  0  0  0  0  0  0  0  0  0  0  0
    0.6832    4.4438   -0.1295 H   0  0  0  0  0  0  0  0  0  0  0  0
   -0.4207    3.2407    1.9229 H   0  0  0  0  0  0  0  0  0  0  0  0
   -1.0829    2.4548    0.4622 H   0  0  0  0  0  0  0  0  0  0  0  0
   -2.1104    0.1073    3.8812 H   0  0  0  0  0  0  0  0  0  0  0  0
   -0.3950   -1.2831    2.4884 H   0  0  0  0  0  0  0  0  0  0  0  0
   -2.1942   -1.3997    1.8837 H   0  0  0  0  0  0  0  0  0  0  0  0
   -3.2648   -3.9299    0.9494 H   0  0  0  0  0  0  0  0  0  0  0  0
   -2.1373   -4.8794   -0.7027 H   0  0  0  0  0  0  0  0  0  0  0  0
    0.5054   -5.5771    0.6565 H   0  0  0  0  0  0  0  0  0  0  0  0
   -1.5069   -7.3145   -0.8577 H   0  0  0  0  0  0  0  0  0  0  0  0
    0.0020   -6.7465   -1.5613 H   0  0  0  0  0  0  0  0  0  0  0  0
    0.0329   -7.8461   -0.1819 H   0  0  0  0  0  0  0  0  0  0  0  0
   -2.3484   -6.4059    1.3418 H   0  0  0  0  0  0  0  0  0  0  0  0
   -0.8868   -7.1002    2.0357 H   0  0  0  0  0  0  0  0  0  0  0  0
   -1.2825   -5.4136    2.3408 H   0  0  0  0  0  0  0  0  0  0  0  0
   -0.7977   -0.9205   -2.9471 H   0  0  0  0  0  0  0  0  0  0  0  0
    0.8068   -1.5772   -2.6003 H   0  0  0  0  0  0  0  0  0  0  0  0
    0.9005    0.1704   -4.3845 H   0  0  0  0  0  0  0  0  0  0  0  0
    1.4165   -1.4184   -5.0082 H   0  0  0  0  0  0  0  0  0  0  0  0
   -2.2362    2.1823   -9.3509 H   0  0  0  0  0  0  0  0  0  0  0  0
   -3.4543    1.7732  -10.5860 H   0  0  0  0  0  0  0  0  0  0  0  0
   -3.2360    3.4461  -10.0949 H   0  0  0  0  0  0  0  0  0  0  0  0
   -3.2106    3.2191   -7.1334 H   0  0  0  0  0  0  0  0  0  0  0  0
   -4.0867    4.2918   -8.2442 H   0  0  0  0  0  0  0  0  0  0  0  0
   -4.9872    3.3448   -7.0680 H   0  0  0  0  0  0  0  0  0  0  0  0
   -4.8630   -1.0566   -8.8342 H   0  0  0  0  0  0  0  0  0  0  0  0
   -5.3721    0.2333   -9.9335 H   0  0  0  0  0  0  0  0  0  0  0  0
   -3.6696   -0.2554   -9.8447 H   0  0  0  0  0  0  0  0  0  0  0  0
   -5.3771    1.3827   -6.2665 H   0  0  0  0  0  0  0  0  0  0  0  0
   -6.4461    1.3049   -7.6805 H   0  0  0  0  0  0  0  0  0  0  0  0
   -5.7951   -0.1759   -6.9598 H   0  0  0  0  0  0  0  0  0  0  0  0
   -1.7770   -1.8818   -6.7661 H   0  0  0  0  0  0  0  0  0  0  0  0
   -0.1900   -2.6297   -6.4577 H   0  0  0  0  0  0  0  0  0  0  0  0
   -1.8945   -3.7833   -5.1099 H   0  0  0  0  0  0  0  0  0  0  0  0
   -2.4339   -2.2516   -4.4102 H   0  0  0  0  0  0  0  0  0  0  0  0
    1.2851   -3.4385   -0.5193 H   0  0  0  0  0  0  0  0  0  0  0  0
    1.4596   -5.0356   -1.2841 H   0  0  0  0  0  0  0  0  0  0  0  0
    1.4768   -3.5909   -2.2764 H   0  0  0  0  0  0  0  0  0  0  0  0
   -4.8716   -2.7679    2.3914 H   0  0  0  0  0  0  0  0  0  0  0  0
   -4.4507   -1.1195    2.8646 H   0  0  0  0  0  0  0  0  0  0  0  0
   -5.5953   -0.7012    0.8897 H   0  0  0  0  0  0  0  0  0  0  0  0
   -3.3204    0.2150    0.5865 H   0  0  0  0  0  0  0  0  0  0  0  0
   -2.8020   -1.3344   -0.1670 H   0  0  0  0  0  0  0  0  0  0  0  0
   -5.0699   -0.9174   -2.9963 H   0  0  0  0  0  0  0  0  0  0  0  0
   -3.8258   -1.9956   -2.3030 H   0  0  0  0  0  0  0  0  0  0  0  0
   -6.5586   -1.3712   -1.0841 H   0  0  0  0  0  0  0  0  0  0  0  0
   -6.0204   -2.9206   -1.8042 H   0  0  0  0  0  0  0  0  0  0  0  0
   -1.4280   -3.2974    5.8264 H   0  0  0  0  0  0  0  0  0  0  0  0
    0.1865   -2.5885    5.5185 H   0  0  0  0  0  0  0  0  0  0  0  0
   -2.3863   -1.0714    6.1789 H   0  0  0  0  0  0  0  0  0  0  0  0
   -0.9699   -1.2087    7.2280 H   0  0  0  0  0  0  0  0  0  0  0  0
    0.4027    0.0517    5.6156 H   0  0  0  0  0  0  0  0  0  0  0  0
   -1.0529    0.9932    5.9563 H   0  0  0  0  0  0  0  0  0  0  0  0
   -3.2604    2.9204   -4.5364 H   0  0  0  0  0  0  0  0  0  0  0  0
   -4.6713    1.2592   -3.4207 H   0  0  0  0  0  0  0  0  0  0  0  0
   -1.5114    0.3173   -0.6765 H   0  0  0  0  0  0  0  0  0  0  0  0
  1  2  1  0  0  0  0
  2  3  1  0  0  0  0
  3  4  1  0  0  0  0
  2  5  1  0  0  0  0
  5  6  4  0  0  0  0
  6  7  4  0  0  0  0
  7  8  4  0  0  0  0
  8  9  4  0  0  0  0
  5 10  4  0  0  0  0
  9 10  4  0  0  0  0
 10 11  1  0  0  0  0
 11 12  1  0  0  0  0
 12 13  1  0  0  0  0
 13 14  1  0  0  0  0
 11 15  4  0  0  0  0
 15 16  1  0  0  0  0
 16 17  1  0  0  0  0
 17 18  1  0  0  0  0
 17 19  1  0  0  0  0
 17 20  1  0  0  0  0
 20 21  1  0  0  0  0
 21 22  1  0  0  0  0
 22 23  1  0  0  0  0
 23 24  1  0  0  0  0
 24 25  1  0  0  0  0
 25 26  4  0  0  0  0
 26 27  1  0  0  0  0
 27 28  1  0  0  0  0
 28 29  4  0  0  0  0
 29 30  1  0  0  0  0
 30 31  1  0  0  0  0
 31 32  1  0  0  0  0
 31 33  1  0  0  0  0
 30 34  1  0  0  0  0
 34 35  4  0  0  0  0
 35 36  1  0  0  0  0
 36 37  1  0  0  0  0
 37 38  1  0  0  0  0
 38 39  1  0  0  0  0
 39 40  4  0  0  0  0
 40 41  1  0  0  0  0
 41 42  3  0  0  0  0
 42 43  1  0  0  0  0
 43 44  1  0  0  0  0
 44 45  1  0  0  0  0
 44 46  1  0  0  0  0
 43 47  1  0  0  0  0
 43 48  1  0  0  0  0
 40 49  2  0  0  0  0
 39 50  1  0  0  0  0
 36 51  1  0  0  0  0
 50 51  1  0  0  0  0
 35 52  2  0  0  0  0
 34 53  1  0  0  0  0
 29 54  2  0  0  0  0
 27 55  1  0  0  0  0
 55 56  1  0  0  0  0
 56 57  1  0  0  0  0
 57 58  1  0  0  0  0
 58 59  1  0  0  0  0
 59 60  1  0  0  0  0
 56 61  1  0  0  0  0
 60 61  1  0  0  0  0
 26 62  2  0  0  0  0
 25 63  1  0  0  0  0
 63 64  1  0  0  0  0
 23 65  1  0  0  0  0
 64 65  1  0  0  0  0
 22 66  2  0  0  0  0
 15 67  4  0  0  0  0
 12 68  1  0  0  0  0
 67 68  4  0  0  0  0
 68 69  4  0  0  0  0
 69 70  2  0  0  0  0
 58 71  1  0  0  0  0
 70 71  4  0  0  0  0
 67 72  4  0  0  0  0
 71 72  4  0  0  0  0
 36 73  1  0  0  0  0
  1 74  1  0  0  0  0
  1 75  1  0  0  0  0
  1 76  1  0  0  0  0
  2 77  1  0  0  0  0
  4 78  1  0  0  0  0
  4 79  1  0  0  0  0
  4 80  1  0  0  0  0
  7 81  1  0  0  0  0
  8 82  1  0  0  0  0
  9 83  1  0  0  0  0
 13 84  1  0  0  0  0
 13 85  1  0  0  0  0
 14 86  1  0  0  0  0
 14 87  1  0  0  0  0
 14 88  1  0  0  0  0
 16 89  1  0  0  0  0
 16 90  1  0  0  0  0
 18 91  1  0  0  0  0
 18 92  1  0  0  0  0
 18 93  1  0  0  0  0
 19 94  1  0  0  0  0
 19 95  1  0  0  0  0
 19 96  1  0  0  0  0
 20 97  1  0  0  0  0
 20 98  1  0  0  0  0
 23 99  1  0  0  0  0
 24100  1  0  0  0  0
 27101  1  0  0  0  0
 28102  1  0  0  0  0
 30103  1  0  0  0  0
 31104  1  0  0  0  0
 32105  1  0  0  0  0
 32106  1  0  0  0  0
 32107  1  0  0  0  0
 33108  1  0  0  0  0
 33109  1  0  0  0  0
 33110  1  0  0  0  0
 37111  1  0  0  0  0
 37112  1  0  0  0  0
 38113  1  0  0  0  0
 38114  1  0  0  0  0
 45115  1  0  0  0  0
 45116  1  0  0  0  0
 45117  1  0  0  0  0
 46118  1  0  0  0  0
 46119  1  0  0  0  0
 46120  1  0  0  0  0
 47121  1  0  0  0  0
 47122  1  0  0  0  0
 47123  1  0  0  0  0
 48124  1  0  0  0  0
 48125  1  0  0  0  0
 48126  1  0  0  0  0
 50127  1  0  0  0  0
 50128  1  0  0  0  0
 51129  1  0  0  0  0
 51130  1  0  0  0  0
 53131  1  0  0  0  0
 53132  1  0  0  0  0
 53133  1  0  0  0  0
 55134  1  0  0  0  0
 55135  1  0  0  0  0
 56136  1  0  0  0  0
 57137  1  0  0  0  0
 57138  1  0  0  0  0
 59139  1  0  0  0  0
 59140  1  0  0  0  0
 60141  1  0  0  0  0
 60142  1  0  0  0  0
 63143  1  0  0  0  0
 63144  1  0  0  0  0
 64145  1  0  0  0  0
 64146  1  0  0  0  0
 65147  1  0  0  0  0
 65148  1  0  0  0  0
 69149  1  0  0  0  0
 70150  1  0  0  0  0
 72151  1  0  0  0  0
M  END
$$$$
