 xtb: 6.7.1 (edcfbbe)
          08232516143D

151157  0     0  0            999 V2000
    2.4552   -6.7273    2.8291 C   0  0  0  0  0  0  0  0  0  0  0  0
    0.9213   -6.7253    2.7631 C   0  0  0  0  0  0  0  0  0  0  0  0
    0.4290   -6.0099    1.6463 O   0  0  0  0  0  0  0  0  0  0  0  0
    0.3574   -6.7634    0.4655 C   0  0  0  0  0  0  0  0  0  0  0  0
    0.3671   -6.1601    4.0524 C   0  0  0  0  0  0  0  0  0  0  0  0
    0.0281   -7.1001    4.9262 N   0  0  0  0  0  0  0  0  0  0  0  0
   -0.3900   -6.7593    6.1297 C   0  0  0  0  0  0  0  0  0  0  0  0
   -0.4842   -5.4419    6.5474 C   0  0  0  0  0  0  0  0  0  0  0  0
   -0.1451   -4.4572    5.6390 C   0  0  0  0  0  0  0  0  0  0  0  0
    0.2796   -4.7968    4.3530 C   0  0  0  0  0  0  0  0  0  0  0  0
    0.6021   -3.6999    3.4283 C   0  0  0  0  0  0  0  0  0  0  0  0
    1.7709   -2.9863    3.5943 N   0  0  0  0  0  0  0  0  0  0  0  0
    2.8330   -3.2684    4.5263 C   0  0  0  0  0  0  0  0  0  0  0  0
    2.8352   -2.2954    5.7050 C   0  0  0  0  0  0  0  0  0  0  0  0
   -0.1636   -3.1349    2.4352 C   0  0  0  0  0  0  0  0  0  0  0  0
   -1.4717   -3.5796    1.8608 C   0  0  0  0  0  0  0  0  0  0  0  0
   -2.7459   -2.9923    2.5118 C   0  0  0  0  0  0  0  0  0  0  0  0
   -3.0086   -3.6723    3.8566 C   0  0  0  0  0  0  0  0  0  0  0  0
   -2.6306   -1.4836    2.7254 C   0  0  0  0  0  0  0  0  0  0  0  0
   -3.9535   -3.3011    1.5985 C   0  0  0  0  0  0  0  0  0  0  0  0
   -4.1180   -2.3823    0.5107 O   0  0  0  0  0  0  0  0  0  0  0  0
   -5.1411   -1.5420    0.5901 C   0  0  0  0  0  0  0  0  0  0  0  0
   -5.2956   -0.6454   -0.6359 C   0  0  0  0  0  0  0  0  0  0  0  0
   -4.7465   -1.2174   -1.8539 N   0  0  0  0  0  0  0  0  0  0  0  0
   -4.8374   -0.3018   -2.9100 N   0  0  0  0  0  0  0  0  0  0  0  0
   -3.9068    0.5915   -3.3068 C   0  0  0  0  0  0  0  0  0  0  0  0
   -2.5407    0.5323   -2.5974 C   0  0  0  0  0  0  0  0  0  0  0  0
   -1.6005   -0.2143   -3.4117 N   0  0  0  0  0  0  0  0  0  0  0  0
   -1.4167   -1.5309   -3.2431 C   0  0  0  0  0  0  0  0  0  0  0  0
   -0.3306   -2.1471   -4.1272 C   0  0  0  0  0  0  0  0  0  0  0  0
   -0.9341   -2.8028   -5.3838 C   0  0  0  0  0  0  0  0  0  0  0  0
    0.1868   -3.3329   -6.2757 C   0  0  0  0  0  0  0  0  0  0  0  0
   -1.7818   -1.7917   -6.1537 C   0  0  0  0  0  0  0  0  0  0  0  0
    0.4708   -3.0768   -3.3351 N   0  0  0  0  0  0  0  0  0  0  0  0
    1.7064   -2.6714   -2.9966 C   0  0  0  0  0  0  0  0  0  0  0  0
    2.6087   -3.5789   -2.1428 C   0  0  0  0  0  0  0  0  0  0  0  0
    2.2651   -3.4119   -0.6592 C   0  0  0  0  0  0  0  0  0  0  0  0
    3.2368   -4.2082    0.2087 C   0  0  0  0  0  0  0  0  0  0  0  0
    4.5947   -3.8068   -0.0636 N   0  0  0  0  0  0  0  0  0  0  0  0
    5.3550   -3.2535    0.9070 C   0  0  0  0  0  0  0  0  0  0  0  0
    6.6411   -2.7689    0.4706 C   0  0  0  0  0  0  0  0  0  0  0  0
    7.7197   -2.2916    0.2328 C   0  0  0  0  0  0  0  0  0  0  0  0
    9.0083   -1.6999   -0.1155 C   0  0  0  0  0  0  0  0  0  0  0  0
    9.4256   -2.2742   -1.4005 N   0  0  0  0  0  0  0  0  0  0  0  0
    9.5529   -3.7170   -1.3874 C   0  0  0  0  0  0  0  0  0  0  0  0
   10.5917   -1.6702   -2.0061 C   0  0  0  0  0  0  0  0  0  0  0  0
    8.7545   -0.1902   -0.2616 C   0  0  0  0  0  0  0  0  0  0  0  0
    9.9868   -1.9501    1.0493 C   0  0  0  0  0  0  0  0  0  0  0  0
    5.0002   -3.1675    2.0719 O   0  0  0  0  0  0  0  0  0  0  0  0
    4.9946   -3.9795   -1.4378 C   0  0  0  0  0  0  0  0  0  0  0  0
    4.0742   -3.1966   -2.3740 C   0  0  0  0  0  0  0  0  0  0  0  0
    2.1354   -1.5688   -3.3116 O   0  0  0  0  0  0  0  0  0  0  0  0
   -0.1455   -4.3308   -2.9588 C   0  0  0  0  0  0  0  0  0  0  0  0
   -2.0698   -2.1807   -2.4391 O   0  0  0  0  0  0  0  0  0  0  0  0
   -2.0286    1.9539   -2.3601 C   0  0  0  0  0  0  0  0  0  0  0  0
   -0.6091    2.0220   -1.7787 C   0  0  0  0  0  0  0  0  0  0  0  0
   -0.3412    0.8855   -0.7927 C   0  0  0  0  0  0  0  0  0  0  0  0
    1.0084    0.9261   -0.2646 N   0  0  0  0  0  0  0  0  0  0  0  0
    1.9762    0.9677   -1.3573 C   0  0  0  0  0  0  0  0  0  0  0  0
    1.6340    2.1004   -2.3233 C   0  0  0  0  0  0  0  0  0  0  0  0
    0.3275    1.9725   -2.8388 O   0  0  0  0  0  0  0  0  0  0  0  0
   -4.1049    1.3701   -4.2230 O   0  0  0  0  0  0  0  0  0  0  0  0
   -6.2224   -0.1255   -3.3077 C   0  0  0  0  0  0  0  0  0  0  0  0
   -6.9821    0.4819   -2.1262 C   0  0  0  0  0  0  0  0  0  0  0  0
   -6.7913   -0.3942   -0.8898 C   0  0  0  0  0  0  0  0  0  0  0  0
   -5.8882   -1.4575    1.5319 O   0  0  0  0  0  0  0  0  0  0  0  0
    0.5840   -2.0208    1.9543 C   0  0  0  0  0  0  0  0  0  0  0  0
    1.7841   -1.9591    2.6918 C   0  0  0  0  0  0  0  0  0  0  0  0
    2.7279   -0.9722    2.4239 C   0  0  0  0  0  0  0  0  0  0  0  0
    2.4457   -0.0507    1.4405 C   0  0  0  0  0  0  0  0  0  0  0  0
    1.2505   -0.0893    0.6963 C   0  0  0  0  0  0  0  0  0  0  0  0
    0.3297   -1.0903    0.9509 C   0  0  0  0  0  0  0  0  0  0  0  0
    2.4630   -4.9165   -2.5133 F   0  0  0  0  0  0  0  0  0  0  0  0
    2.7767   -7.2564    3.7221 H   0  0  0  0  0  0  0  0  0  0  0  0
    2.8709   -7.2300    1.9592 H   0  0  0  0  0  0  0  0  0  0  0  0
    2.8315   -5.7089    2.8589 H   0  0  0  0  0  0  0  0  0  0  0  0
    0.5735   -7.7691    2.7136 H   0  0  0  0  0  0  0  0  0  0  0  0
   -0.2072   -7.6919    0.6186 H   0  0  0  0  0  0  0  0  0  0  0  0
   -0.1673   -6.1457   -0.2614 H   0  0  0  0  0  0  0  0  0  0  0  0
    1.3479   -7.0186    0.0720 H   0  0  0  0  0  0  0  0  0  0  0  0
   -0.6521   -7.5817    6.7823 H   0  0  0  0  0  0  0  0  0  0  0  0
   -0.8154   -5.1950    7.5440 H   0  0  0  0  0  0  0  0  0  0  0  0
   -0.2070   -3.4132    5.9154 H   0  0  0  0  0  0  0  0  0  0  0  0
    2.7112   -4.2911    4.8937 H   0  0  0  0  0  0  0  0  0  0  0  0
    3.7838   -3.1976    3.9892 H   0  0  0  0  0  0  0  0  0  0  0  0
    3.6883   -2.4981    6.3470 H   0  0  0  0  0  0  0  0  0  0  0  0
    2.9019   -1.2709    5.3484 H   0  0  0  0  0  0  0  0  0  0  0  0
    1.9269   -2.3972    6.2945 H   0  0  0  0  0  0  0  0  0  0  0  0
   -1.4812   -3.2991    0.8047 H   0  0  0  0  0  0  0  0  0  0  0  0
   -1.5275   -4.6675    1.9214 H   0  0  0  0  0  0  0  0  0  0  0  0
   -2.1730   -3.4997    4.5265 H   0  0  0  0  0  0  0  0  0  0  0  0
   -3.9091   -3.2741    4.3193 H   0  0  0  0  0  0  0  0  0  0  0  0
   -3.1290   -4.7464    3.7303 H   0  0  0  0  0  0  0  0  0  0  0  0
   -1.8161   -1.2634    3.4102 H   0  0  0  0  0  0  0  0  0  0  0  0
   -2.4294   -0.9747    1.7867 H   0  0  0  0  0  0  0  0  0  0  0  0
   -3.5567   -1.0904    3.1411 H   0  0  0  0  0  0  0  0  0  0  0  0
   -3.8367   -4.2871    1.1418 H   0  0  0  0  0  0  0  0  0  0  0  0
   -4.8743   -3.2789    2.1898 H   0  0  0  0  0  0  0  0  0  0  0  0
   -4.8123    0.3176   -0.3715 H   0  0  0  0  0  0  0  0  0  0  0  0
   -3.8183   -1.6293   -1.7696 H   0  0  0  0  0  0  0  0  0  0  0  0
   -2.6477    0.0055   -1.6445 H   0  0  0  0  0  0  0  0  0  0  0  0
   -0.9961    0.3335   -4.0062 H   0  0  0  0  0  0  0  0  0  0  0  0
    0.3569   -1.3546   -4.4420 H   0  0  0  0  0  0  0  0  0  0  0  0
   -1.5787   -3.6320   -5.0782 H   0  0  0  0  0  0  0  0  0  0  0  0
    0.8148   -4.0436   -5.7448 H   0  0  0  0  0  0  0  0  0  0  0  0
   -0.2312   -3.8298   -7.1479 H   0  0  0  0  0  0  0  0  0  0  0  0
    0.8159   -2.5127   -6.6149 H   0  0  0  0  0  0  0  0  0  0  0  0
   -2.6307   -1.4526   -5.5651 H   0  0  0  0  0  0  0  0  0  0  0  0
   -1.1867   -0.9257   -6.4352 H   0  0  0  0  0  0  0  0  0  0  0  0
   -2.1636   -2.2503   -7.0627 H   0  0  0  0  0  0  0  0  0  0  0  0
    2.3402   -2.3513   -0.4146 H   0  0  0  0  0  0  0  0  0  0  0  0
    1.2493   -3.7378   -0.4390 H   0  0  0  0  0  0  0  0  0  0  0  0
    3.0258   -4.0205    1.2612 H   0  0  0  0  0  0  0  0  0  0  0  0
    3.1268   -5.2777   -0.0007 H   0  0  0  0  0  0  0  0  0  0  0  0
    8.7098   -4.1568   -0.8582 H   0  0  0  0  0  0  0  0  0  0  0  0
    9.5394   -4.0720   -2.4189 H   0  0  0  0  0  0  0  0  0  0  0  0
   10.4860   -4.0656   -0.9195 H   0  0  0  0  0  0  0  0  0  0  0  0
   11.5212   -1.8520   -1.4446 H   0  0  0  0  0  0  0  0  0  0  0  0
   10.7121   -2.1009   -3.0003 H   0  0  0  0  0  0  0  0  0  0  0  0
   10.4492   -0.5993   -2.1199 H   0  0  0  0  0  0  0  0  0  0  0  0
    8.1626    0.1593    0.5812 H   0  0  0  0  0  0  0  0  0  0  0  0
    9.6896    0.3634   -0.2751 H   0  0  0  0  0  0  0  0  0  0  0  0
    8.2034    0.0038   -1.1782 H   0  0  0  0  0  0  0  0  0  0  0  0
   10.1155   -3.0158    1.2231 H   0  0  0  0  0  0  0  0  0  0  0  0
   10.9547   -1.5053    0.8294 H   0  0  0  0  0  0  0  0  0  0  0  0
    9.5943   -1.5003    1.9575 H   0  0  0  0  0  0  0  0  0  0  0  0
    6.0253   -3.6443   -1.5637 H   0  0  0  0  0  0  0  0  0  0  0  0
    4.9346   -5.0472   -1.6863 H   0  0  0  0  0  0  0  0  0  0  0  0
    4.3403   -3.4057   -3.4110 H   0  0  0  0  0  0  0  0  0  0  0  0
    4.1762   -2.1255   -2.2031 H   0  0  0  0  0  0  0  0  0  0  0  0
    0.2524   -4.6924   -2.0168 H   0  0  0  0  0  0  0  0  0  0  0  0
   -1.2126   -4.1624   -2.8314 H   0  0  0  0  0  0  0  0  0  0  0  0
    0.0210   -5.0957   -3.7209 H   0  0  0  0  0  0  0  0  0  0  0  0
   -2.0389    2.4892   -3.3115 H   0  0  0  0  0  0  0  0  0  0  0  0
   -2.7189    2.4576   -1.6819 H   0  0  0  0  0  0  0  0  0  0  0  0
   -0.4842    2.9848   -1.2534 H   0  0  0  0  0  0  0  0  0  0  0  0
   -1.0390    0.9681    0.0446 H   0  0  0  0  0  0  0  0  0  0  0  0
   -0.4968   -0.0645   -1.3210 H   0  0  0  0  0  0  0  0  0  0  0  0
    2.9740    1.1322   -0.9503 H   0  0  0  0  0  0  0  0  0  0  0  0
    1.9762    0.0250   -1.9248 H   0  0  0  0  0  0  0  0  0  0  0  0
    1.7306    3.0703   -1.8117 H   0  0  0  0  0  0  0  0  0  0  0  0
    2.3054    2.0711   -3.1826 H   0  0  0  0  0  0  0  0  0  0  0  0
   -6.2441    0.5295   -4.1783 H   0  0  0  0  0  0  0  0  0  0  0  0
   -6.6291   -1.1063   -3.5623 H   0  0  0  0  0  0  0  0  0  0  0  0
   -6.5941    1.4853   -1.9355 H   0  0  0  0  0  0  0  0  0  0  0  0
   -8.0415    0.5653   -2.3675 H   0  0  0  0  0  0  0  0  0  0  0  0
   -7.2705   -1.3610   -1.0513 H   0  0  0  0  0  0  0  0  0  0  0  0
   -7.2367    0.0661   -0.0086 H   0  0  0  0  0  0  0  0  0  0  0  0
    3.6629   -0.9296    2.9596 H   0  0  0  0  0  0  0  0  0  0  0  0
    3.1562    0.7361    1.2374 H   0  0  0  0  0  0  0  0  0  0  0  0
   -0.5807   -1.1976    0.3878 H   0  0  0  0  0  0  0  0  0  0  0  0
  1  2  1  0  0  0  0
  2  3  1  0  0  0  0
  3  4  1  0  0  0  0
  2  5  1  0  0  0  0
  5  6  4  0  0  0  0
  6  7  4  0  0  0  0
  7  8  4  0  0  0  0
  8  9  4  0  0  0  0
  5 10  4  0  0  0  0
  9 10  4  0  0  0  0
 10 11  1  0  0  0  0
 11 12  1  0  0  0  0
 12 13  1  0  0  0  0
 13 14  1  0  0  0  0
 11 15  2  0  0  0  0
 15 16  1  0  0  0  0
 16 17  1  0  0  0  0
 17 18  1  0  0  0  0
 17 19  1  0  0  0  0
 17 20  1  0  0  0  0
 20 21  1  0  0  0  0
 21 22  1  0  0  0  0
 22 23  1  0  0  0  0
 23 24  1  0  0  0  0
 24 25  1  0  0  0  0
 25 26  4  0  0  0  0
 26 27  1  0  0  0  0
 27 28  1  0  0  0  0
 28 29  4  0  0  0  0
 29 30  1  0  0  0  0
 30 31  1  0  0  0  0
 31 32  1  0  0  0  0
 31 33  1  0  0  0  0
 30 34  1  0  0  0  0
 34 35  4  0  0  0  0
 35 36  1  0  0  0  0
 36 37  1  0  0  0  0
 37 38  1  0  0  0  0
 38 39  1  0  0  0  0
 39 40  4  0  0  0  0
 40 41  1  0  0  0  0
 41 42  3  0  0  0  0
 42 43  1  0  0  0  0
 43 44  1  0  0  0  0
 44 45  1  0  0  0  0
 44 46  1  0  0  0  0
 43 47  1  0  0  0  0
 43 48  1  0  0  0  0
 40 49  2  0  0  0  0
 39 50  1  0  0  0  0
 36 51  1  0  0  0  0
 50 51  1  0  0  0  0
 35 52  2  0  0  0  0
 34 53  1  0  0  0  0
 29 54  2  0  0  0  0
 27 55  1  0  0  0  0
 55 56  1  0  0  0  0
 56 57  1  0  0  0  0
 57 58  1  0  0  0  0
 58 59  1  0  0  0  0
 59 60  1  0  0  0  0
 56 61  1  0  0  0  0
 60 61  1  0  0  0  0
 26 62  2  0  0  0  0
 25 63  1  0  0  0  0
 63 64  1  0  0  0  0
 23 65  1  0  0  0  0
 64 65  1  0  0  0  0
 22 66  2  0  0  0  0
 15 67  4  0  0  0  0
 12 68  1  0  0  0  0
 67 68  4  0  0  0  0
 68 69  4  0  0  0  0
 69 70  2  0  0  0  0
 58 71  1  0  0  0  0
 70 71  4  0  0  0  0
 67 72  4  0  0  0  0
 71 72  4  0  0  0  0
 36 73  1  0  0  0  0
  1 74  1  0  0  0  0
  1 75  1  0  0  0  0
  1 76  1  0  0  0  0
  2 77  1  0  0  0  0
  4 78  1  0  0  0  0
  4 79  1  0  0  0  0
  4 80  1  0  0  0  0
  7 81  1  0  0  0  0
  8 82  1  0  0  0  0
  9 83  1  0  0  0  0
 13 84  1  0  0  0  0
 13 85  1  0  0  0  0
 14 86  1  0  0  0  0
 14 87  1  0  0  0  0
 14 88  1  0  0  0  0
 16 89  1  0  0  0  0
 16 90  1  0  0  0  0
 18 91  1  0  0  0  0
 18 92  1  0  0  0  0
 18 93  1  0  0  0  0
 19 94  1  0  0  0  0
 19 95  1  0  0  0  0
 19 96  1  0  0  0  0
 20 97  1  0  0  0  0
 20 98  1  0  0  0  0
 23 99  1  0  0  0  0
 24100  1  0  0  0  0
 27101  1  0  0  0  0
 28102  1  0  0  0  0
 30103  1  0  0  0  0
 31104  1  0  0  0  0
 32105  1  0  0  0  0
 32106  1  0  0  0  0
 32107  1  0  0  0  0
 33108  1  0  0  0  0
 33109  1  0  0  0  0
 33110  1  0  0  0  0
 37111  1  0  0  0  0
 37112  1  0  0  0  0
 38113  1  0  0  0  0
 38114  1  0  0  0  0
 45115  1  0  0  0  0
 45116  1  0  0  0  0
 45117  1  0  0  0  0
 46118  1  0  0  0  0
 46119  1  0  0  0  0
 46120  1  0  0  0  0
 47121  1  0  0  0  0
 47122  1  0  0  0  0
 47123  1  0  0  0  0
 48124  1  0  0  0  0
 48125  1  0  0  0  0
 48126  1  0  0  0  0
 50127  1  0  0  0  0
 50128  1  0  0  0  0
 51129  1  0  0  0  0
 51130  1  0  0  0  0
 53131  1  0  0  0  0
 53132  1  0  0  0  0
 53133  1  0  0  0  0
 55134  1  0  0  0  0
 55135  1  0  0  0  0
 56136  1  0  0  0  0
 57137  1  0  0  0  0
 57138  1  0  0  0  0
 59139  1  0  0  0  0
 59140  1  0  0  0  0
 60141  1  0  0  0  0
 60142  1  0  0  0  0
 63143  1  0  0  0  0
 63144  1  0  0  0  0
 64145  1  0  0  0  0
 64146  1  0  0  0  0
 65147  1  0  0  0  0
 65148  1  0  0  0  0
 69149  1  0  0  0  0
 70150  1  0  0  0  0
 72151  1  0  0  0  0
M  END
$$$$
