 xtb: 6.7.1 (edcfbbe)
          08182521423D

151157  0     0  0            999 V2000
   -0.1496   14.3088  -13.4757 C   0  0  0  0  0  0  0  0  0  0  0  0
   -0.5120   13.6081  -12.1683 C   0  0  0  0  0  0  0  0  0  0  0  0
   -1.3871   14.3908  -11.3691 O   0  0  0  0  0  0  0  0  0  0  0  0
   -2.7455   14.2652  -11.7001 C   0  0  0  0  0  0  0  0  0  0  0  0
    0.7195   13.3187  -11.3311 C   0  0  0  0  0  0  0  0  0  0  0  0
    1.8662   13.8387  -11.7327 N   0  0  0  0  0  0  0  0  0  0  0  0
    2.9653   13.5921  -11.0432 C   0  0  0  0  0  0  0  0  0  0  0  0
    2.9869   12.7960   -9.9100 C   0  0  0  0  0  0  0  0  0  0  0  0
    1.7901   12.2458   -9.4814 C   0  0  0  0  0  0  0  0  0  0  0  0
    0.6215   12.5108  -10.1887 C   0  0  0  0  0  0  0  0  0  0  0  0
   -0.6626   11.9141   -9.7941 C   0  0  0  0  0  0  0  0  0  0  0  0
   -1.0186   10.6904  -10.3226 N   0  0  0  0  0  0  0  0  0  0  0  0
   -0.1825    9.8386  -11.1250 C   0  0  0  0  0  0  0  0  0  0  0  0
    0.5526    8.8047  -10.2726 C   0  0  0  0  0  0  0  0  0  0  0  0
   -1.6688   12.3975   -8.9938 C   0  0  0  0  0  0  0  0  0  0  0  0
   -1.7640   13.6960   -8.2565 C   0  0  0  0  0  0  0  0  0  0  0  0
   -0.8189   13.9192   -7.0421 C   0  0  0  0  0  0  0  0  0  0  0  0
   -1.5656   14.7334   -5.9803 C   0  0  0  0  0  0  0  0  0  0  0  0
    0.4058   14.7269   -7.4858 C   0  0  0  0  0  0  0  0  0  0  0  0
   -0.3184   12.5999   -6.4206 C   0  0  0  0  0  0  0  0  0  0  0  0
   -1.1377   12.1439   -5.3391 O   0  0  0  0  0  0  0  0  0  0  0  0
   -1.5003   10.8718   -5.3167 C   0  0  0  0  0  0  0  0  0  0  0  0
   -2.2443   10.5368   -4.0270 C   0  0  0  0  0  0  0  0  0  0  0  0
   -2.2812    9.0892   -3.8891 N   0  0  0  0  0  0  0  0  0  0  0  0
   -3.0749    8.6787   -2.8131 N   0  0  0  0  0  0  0  0  0  0  0  0
   -4.3220    8.1680   -2.8549 C   0  0  0  0  0  0  0  0  0  0  0  0
   -4.9829    8.1123   -4.2361 C   0  0  0  0  0  0  0  0  0  0  0  0
   -5.9372    7.0355   -4.3034 N   0  0  0  0  0  0  0  0  0  0  0  0
   -5.8712    6.0851   -5.2467 C   0  0  0  0  0  0  0  0  0  0  0  0
   -7.1183    5.2010   -5.3365 C   0  0  0  0  0  0  0  0  0  0  0  0
   -6.7879    3.7066   -5.2778 C   0  0  0  0  0  0  0  0  0  0  0  0
   -8.0666    2.8740   -5.3257 C   0  0  0  0  0  0  0  0  0  0  0  0
   -6.0236    3.4288   -3.9838 C   0  0  0  0  0  0  0  0  0  0  0  0
   -7.7989    5.6189   -6.5684 N   0  0  0  0  0  0  0  0  0  0  0  0
   -8.6873    6.6206   -6.4336 C   0  0  0  0  0  0  0  0  0  0  0  0
   -9.5141    7.0667   -7.6586 C   0  0  0  0  0  0  0  0  0  0  0  0
  -10.3664    8.2850   -7.2944 C   0  0  0  0  0  0  0  0  0  0  0  0
  -11.2583    8.6770   -8.4744 C   0  0  0  0  0  0  0  0  0  0  0  0
  -12.0645    7.5575   -8.8862 N   0  0  0  0  0  0  0  0  0  0  0  0
  -13.4137    7.4736   -8.7629 C   0  0  0  0  0  0  0  0  0  0  0  0
  -14.0610    8.6751   -8.2960 C   0  0  0  0  0  0  0  0  0  0  0  0
  -14.7842    9.5660   -7.9285 C   0  0  0  0  0  0  0  0  0  0  0  0
  -15.5029   10.7482   -7.4555 C   0  0  0  0  0  0  0  0  0  0  0  0
  -14.5763   11.8253   -7.0663 N   0  0  0  0  0  0  0  0  0  0  0  0
  -13.7089   11.4705   -5.9590 C   0  0  0  0  0  0  0  0  0  0  0  0
  -13.8014   12.3531   -8.1727 C   0  0  0  0  0  0  0  0  0  0  0  0
  -16.3710   10.3435   -6.2531 C   0  0  0  0  0  0  0  0  0  0  0  0
  -16.4332   11.2323   -8.5793 C   0  0  0  0  0  0  0  0  0  0  0  0
  -14.0460    6.4714   -9.0428 O   0  0  0  0  0  0  0  0  0  0  0  0
  -11.3043    6.4004   -9.2895 C   0  0  0  0  0  0  0  0  0  0  0  0
  -10.4111    5.9225   -8.1419 C   0  0  0  0  0  0  0  0  0  0  0  0
   -8.9309    7.1265   -5.3460 O   0  0  0  0  0  0  0  0  0  0  0  0
   -7.2233    5.1343   -7.8053 C   0  0  0  0  0  0  0  0  0  0  0  0
   -4.9465    5.9876   -6.0343 O   0  0  0  0  0  0  0  0  0  0  0  0
   -5.6799    9.4656   -4.4787 C   0  0  0  0  0  0  0  0  0  0  0  0
   -5.3747   10.0413   -5.8652 C   0  0  0  0  0  0  0  0  0  0  0  0
   -6.0824    9.2776   -6.9982 C   0  0  0  0  0  0  0  0  0  0  0  0
   -6.0882   10.0877   -8.1992 N   0  0  0  0  0  0  0  0  0  0  0  0
   -6.8963   11.2798   -8.0038 C   0  0  0  0  0  0  0  0  0  0  0  0
   -6.9097   11.7345   -6.5294 C   0  0  0  0  0  0  0  0  0  0  0  0
   -5.6893   11.4311   -5.8919 O   0  0  0  0  0  0  0  0  0  0  0  0
   -4.9079    7.7937   -1.8545 O   0  0  0  0  0  0  0  0  0  0  0  0
   -2.4522    9.0664   -1.5621 C   0  0  0  0  0  0  0  0  0  0  0  0
   -2.3109   10.5915   -1.5330 C   0  0  0  0  0  0  0  0  0  0  0  0
   -1.5528   11.0784   -2.7701 C   0  0  0  0  0  0  0  0  0  0  0  0
   -1.2870   10.0661   -6.1855 O   0  0  0  0  0  0  0  0  0  0  0  0
   -2.7136   11.4225   -9.0401 C   0  0  0  0  0  0  0  0  0  0  0  0
   -2.2628   10.3640   -9.8606 C   0  0  0  0  0  0  0  0  0  0  0  0
   -3.0504    9.2434  -10.0977 C   0  0  0  0  0  0  0  0  0  0  0  0
   -4.3000    9.2057   -9.5254 C   0  0  0  0  0  0  0  0  0  0  0  0
   -4.7773   10.2593   -8.7300 C   0  0  0  0  0  0  0  0  0  0  0  0
   -3.9880   11.3645   -8.4784 C   0  0  0  0  0  0  0  0  0  0  0  0
   -8.6736    7.4580   -8.7015 F   0  0  0  0  0  0  0  0  0  0  0  0
   -1.0416   14.4795  -14.0733 H   0  0  0  0  0  0  0  0  0  0  0  0
    0.3228   15.2604  -13.2538 H   0  0  0  0  0  0  0  0  0  0  0  0
    0.5456   13.6959  -14.0406 H   0  0  0  0  0  0  0  0  0  0  0  0
   -1.0041   12.6447  -12.3913 H   0  0  0  0  0  0  0  0  0  0  0  0
   -3.0881   13.2292  -11.5830 H   0  0  0  0  0  0  0  0  0  0  0  0
   -3.2892   14.9014  -11.0043 H   0  0  0  0  0  0  0  0  0  0  0  0
   -2.9525   14.5963  -12.7237 H   0  0  0  0  0  0  0  0  0  0  0  0
    3.8671   14.0496  -11.4282 H   0  0  0  0  0  0  0  0  0  0  0  0
    3.9081   12.6076   -9.3810 H   0  0  0  0  0  0  0  0  0  0  0  0
    1.7556   11.6144   -8.6045 H   0  0  0  0  0  0  0  0  0  0  0  0
   -0.8153    9.3303  -11.8593 H   0  0  0  0  0  0  0  0  0  0  0  0
    0.5383   10.4606  -11.6649 H   0  0  0  0  0  0  0  0  0  0  0  0
    1.2402    9.2970   -9.5898 H   0  0  0  0  0  0  0  0  0  0  0  0
   -0.1598    8.2303   -9.6860 H   0  0  0  0  0  0  0  0  0  0  0  0
    1.1170    8.1277  -10.9084 H   0  0  0  0  0  0  0  0  0  0  0  0
   -1.5875   14.5069   -8.9664 H   0  0  0  0  0  0  0  0  0  0  0  0
   -2.7938   13.7798   -7.9066 H   0  0  0  0  0  0  0  0  0  0  0  0
   -0.9190   14.9287   -5.1276 H   0  0  0  0  0  0  0  0  0  0  0  0
   -1.8831   15.6847   -6.4006 H   0  0  0  0  0  0  0  0  0  0  0  0
   -2.4423   14.1975   -5.6262 H   0  0  0  0  0  0  0  0  0  0  0  0
    1.0527   14.9431   -6.6374 H   0  0  0  0  0  0  0  0  0  0  0  0
    0.9806   14.1871   -8.2312 H   0  0  0  0  0  0  0  0  0  0  0  0
    0.0904   15.6717   -7.9210 H   0  0  0  0  0  0  0  0  0  0  0  0
   -0.2698   11.8095   -7.1745 H   0  0  0  0  0  0  0  0  0  0  0  0
    0.6785   12.7526   -5.9929 H   0  0  0  0  0  0  0  0  0  0  0  0
   -3.2474   10.9918   -4.1095 H   0  0  0  0  0  0  0  0  0  0  0  0
   -2.4988    8.6195   -4.7603 H   0  0  0  0  0  0  0  0  0  0  0  0
   -4.2536    7.8995   -5.0236 H   0  0  0  0  0  0  0  0  0  0  0  0
   -6.6994    7.0634   -3.6436 H   0  0  0  0  0  0  0  0  0  0  0  0
   -7.7995    5.4428   -4.5153 H   0  0  0  0  0  0  0  0  0  0  0  0
   -6.1405    3.4448   -6.1182 H   0  0  0  0  0  0  0  0  0  0  0  0
   -8.6870    3.0904   -4.4586 H   0  0  0  0  0  0  0  0  0  0  0  0
   -8.6491    3.0864   -6.2185 H   0  0  0  0  0  0  0  0  0  0  0  0
   -7.8248    1.8141   -5.3175 H   0  0  0  0  0  0  0  0  0  0  0  0
   -6.6162    3.7156   -3.1176 H   0  0  0  0  0  0  0  0  0  0  0  0
   -5.7927    2.3693   -3.9070 H   0  0  0  0  0  0  0  0  0  0  0  0
   -5.0902    3.9856   -3.9620 H   0  0  0  0  0  0  0  0  0  0  0  0
  -10.9691    8.0378   -6.4208 H   0  0  0  0  0  0  0  0  0  0  0  0
   -9.7095    9.1158   -7.0336 H   0  0  0  0  0  0  0  0  0  0  0  0
  -11.9080    9.5089   -8.1956 H   0  0  0  0  0  0  0  0  0  0  0  0
  -10.6263    8.9873   -9.3159 H   0  0  0  0  0  0  0  0  0  0  0  0
  -13.0575   12.3172   -5.7473 H   0  0  0  0  0  0  0  0  0  0  0  0
  -14.3004   11.2771   -5.0681 H   0  0  0  0  0  0  0  0  0  0  0  0
  -13.0793   10.5913   -6.1652 H   0  0  0  0  0  0  0  0  0  0  0  0
  -13.1221   13.1117   -7.7866 H   0  0  0  0  0  0  0  0  0  0  0  0
  -13.2052   11.5856   -8.6904 H   0  0  0  0  0  0  0  0  0  0  0  0
  -14.4580   12.8329   -8.8939 H   0  0  0  0  0  0  0  0  0  0  0  0
  -15.8004    9.7836   -5.5174 H   0  0  0  0  0  0  0  0  0  0  0  0
  -16.7807   11.2372   -5.7896 H   0  0  0  0  0  0  0  0  0  0  0  0
  -17.1880    9.7106   -6.5899 H   0  0  0  0  0  0  0  0  0  0  0  0
  -16.8599   12.1933   -8.3039 H   0  0  0  0  0  0  0  0  0  0  0  0
  -15.9044   11.3280   -9.5235 H   0  0  0  0  0  0  0  0  0  0  0  0
  -17.2366   10.5140   -8.7210 H   0  0  0  0  0  0  0  0  0  0  0  0
  -12.0111    5.6191   -9.5758 H   0  0  0  0  0  0  0  0  0  0  0  0
  -10.6820    6.6637  -10.1526 H   0  0  0  0  0  0  0  0  0  0  0  0
   -9.8084    5.0804   -8.4793 H   0  0  0  0  0  0  0  0  0  0  0  0
  -11.0267    5.5978   -7.3014 H   0  0  0  0  0  0  0  0  0  0  0  0
   -6.1362    5.1808   -7.7169 H   0  0  0  0  0  0  0  0  0  0  0  0
   -7.5221    4.1004   -7.9901 H   0  0  0  0  0  0  0  0  0  0  0  0
   -7.5134    5.7469   -8.6492 H   0  0  0  0  0  0  0  0  0  0  0  0
   -6.7583    9.3338   -4.3649 H   0  0  0  0  0  0  0  0  0  0  0  0
   -5.3662   10.1969   -3.7291 H   0  0  0  0  0  0  0  0  0  0  0  0
   -4.2923    9.9990   -6.0509 H   0  0  0  0  0  0  0  0  0  0  0  0
   -5.5591    8.3413   -7.1941 H   0  0  0  0  0  0  0  0  0  0  0  0
   -7.1164    9.0471   -6.7258 H   0  0  0  0  0  0  0  0  0  0  0  0
   -6.5199   12.0705   -8.6537 H   0  0  0  0  0  0  0  0  0  0  0  0
   -7.9230   11.0436   -8.3145 H   0  0  0  0  0  0  0  0  0  0  0  0
   -7.0162   12.8183   -6.4515 H   0  0  0  0  0  0  0  0  0  0  0  0
   -7.7453   11.2658   -5.9903 H   0  0  0  0  0  0  0  0  0  0  0  0
   -3.0827    8.7067   -0.7491 H   0  0  0  0  0  0  0  0  0  0  0  0
   -1.4678    8.5948   -1.5074 H   0  0  0  0  0  0  0  0  0  0  0  0
   -3.3061   11.0414   -1.5131 H   0  0  0  0  0  0  0  0  0  0  0  0
   -1.7836   10.8917   -0.6276 H   0  0  0  0  0  0  0  0  0  0  0  0
   -0.5312   10.6960   -2.7452 H   0  0  0  0  0  0  0  0  0  0  0  0
   -1.5209   12.1668   -2.8011 H   0  0  0  0  0  0  0  0  0  0  0  0
   -2.7020    8.4269  -10.7121 H   0  0  0  0  0  0  0  0  0  0  0  0
   -4.9480    8.3579   -9.6842 H   0  0  0  0  0  0  0  0  0  0  0  0
   -4.3402   12.1614   -7.8409 H   0  0  0  0  0  0  0  0  0  0  0  0
  1  2  1  0  0  0  0
  2  3  1  0  0  0  0
  3  4  1  0  0  0  0
  2  5  1  0  0  0  0
  5  6  4  0  0  0  0
  6  7  4  0  0  0  0
  7  8  4  0  0  0  0
  8  9  4  0  0  0  0
  5 10  4  0  0  0  0
  9 10  4  0  0  0  0
 10 11  1  0  0  0  0
 11 12  1  0  0  0  0
 12 13  1  0  0  0  0
 13 14  1  0  0  0  0
 11 15  2  0  0  0  0
 15 16  1  0  0  0  0
 16 17  1  0  0  0  0
 17 18  1  0  0  0  0
 17 19  1  0  0  0  0
 17 20  1  0  0  0  0
 20 21  1  0  0  0  0
 21 22  1  0  0  0  0
 22 23  1  0  0  0  0
 23 24  1  0  0  0  0
 24 25  1  0  0  0  0
 25 26  4  0  0  0  0
 26 27  1  0  0  0  0
 27 28  1  0  0  0  0
 28 29  4  0  0  0  0
 29 30  1  0  0  0  0
 30 31  1  0  0  0  0
 31 32  1  0  0  0  0
 31 33  1  0  0  0  0
 30 34  1  0  0  0  0
 34 35  4  0  0  0  0
 35 36  1  0  0  0  0
 36 37  1  0  0  0  0
 37 38  1  0  0  0  0
 38 39  1  0  0  0  0
 39 40  4  0  0  0  0
 40 41  1  0  0  0  0
 41 42  3  0  0  0  0
 42 43  1  0  0  0  0
 43 44  1  0  0  0  0
 44 45  1  0  0  0  0
 44 46  1  0  0  0  0
 43 47  1  0  0  0  0
 43 48  1  0  0  0  0
 40 49  2  0  0  0  0
 39 50  1  0  0  0  0
 36 51  1  0  0  0  0
 50 51  1  0  0  0  0
 35 52  2  0  0  0  0
 34 53  1  0  0  0  0
 29 54  2  0  0  0  0
 27 55  1  0  0  0  0
 55 56  1  0  0  0  0
 56 57  1  0  0  0  0
 57 58  1  0  0  0  0
 58 59  1  0  0  0  0
 59 60  1  0  0  0  0
 56 61  1  0  0  0  0
 60 61  1  0  0  0  0
 26 62  2  0  0  0  0
 25 63  1  0  0  0  0
 63 64  1  0  0  0  0
 23 65  1  0  0  0  0
 64 65  1  0  0  0  0
 22 66  2  0  0  0  0
 15 67  4  0  0  0  0
 12 68  1  0  0  0  0
 67 68  4  0  0  0  0
 68 69  4  0  0  0  0
 69 70  2  0  0  0  0
 58 71  1  0  0  0  0
 70 71  4  0  0  0  0
 67 72  4  0  0  0  0
 71 72  4  0  0  0  0
 36 73  1  0  0  0  0
  1 74  1  0  0  0  0
  1 75  1  0  0  0  0
  1 76  1  0  0  0  0
  2 77  1  0  0  0  0
  4 78  1  0  0  0  0
  4 79  1  0  0  0  0
  4 80  1  0  0  0  0
  7 81  1  0  0  0  0
  8 82  1  0  0  0  0
  9 83  1  0  0  0  0
 13 84  1  0  0  0  0
 13 85  1  0  0  0  0
 14 86  1  0  0  0  0
 14 87  1  0  0  0  0
 14 88  1  0  0  0  0
 16 89  1  0  0  0  0
 16 90  1  0  0  0  0
 18 91  1  0  0  0  0
 18 92  1  0  0  0  0
 18 93  1  0  0  0  0
 19 94  1  0  0  0  0
 19 95  1  0  0  0  0
 19 96  1  0  0  0  0
 20 97  1  0  0  0  0
 20 98  1  0  0  0  0
 23 99  1  0  0  0  0
 24100  1  0  0  0  0
 27101  1  0  0  0  0
 28102  1  0  0  0  0
 30103  1  0  0  0  0
 31104  1  0  0  0  0
 32105  1  0  0  0  0
 32106  1  0  0  0  0
 32107  1  0  0  0  0
 33108  1  0  0  0  0
 33109  1  0  0  0  0
 33110  1  0  0  0  0
 37111  1  0  0  0  0
 37112  1  0  0  0  0
 38113  1  0  0  0  0
 38114  1  0  0  0  0
 45115  1  0  0  0  0
 45116  1  0  0  0  0
 45117  1  0  0  0  0
 46118  1  0  0  0  0
 46119  1  0  0  0  0
 46120  1  0  0  0  0
 47121  1  0  0  0  0
 47122  1  0  0  0  0
 47123  1  0  0  0  0
 48124  1  0  0  0  0
 48125  1  0  0  0  0
 48126  1  0  0  0  0
 50127  1  0  0  0  0
 50128  1  0  0  0  0
 51129  1  0  0  0  0
 51130  1  0  0  0  0
 53131  1  0  0  0  0
 53132  1  0  0  0  0
 53133  1  0  0  0  0
 55134  1  0  0  0  0
 55135  1  0  0  0  0
 56136  1  0  0  0  0
 57137  1  0  0  0  0
 57138  1  0  0  0  0
 59139  1  0  0  0  0
 59140  1  0  0  0  0
 60141  1  0  0  0  0
 60142  1  0  0  0  0
 63143  1  0  0  0  0
 63144  1  0  0  0  0
 64145  1  0  0  0  0
 64146  1  0  0  0  0
 65147  1  0  0  0  0
 65148  1  0  0  0  0
 69149  1  0  0  0  0
 70150  1  0  0  0  0
 72151  1  0  0  0  0
M  END
$$$$
