 xtb: 6.7.1 (edcfbbe)
          08172523453D

151157  0     0  0            999 V2000
    2.2096    7.2043   -7.7422 C   0  0  0  0  0  0  0  0  0  0  0  0
    2.3210    5.6844   -7.6172 C   0  0  0  0  0  0  0  0  0  0  0  0
    3.4838    5.1438   -8.2301 O   0  0  0  0  0  0  0  0  0  0  0  0
    3.6975    5.4800   -9.5832 C   0  0  0  0  0  0  0  0  0  0  0  0
    1.0674    5.0156   -8.1495 C   0  0  0  0  0  0  0  0  0  0  0  0
    0.6659    5.4004   -9.3532 N   0  0  0  0  0  0  0  0  0  0  0  0
   -0.4128    4.8582   -9.8881 C   0  0  0  0  0  0  0  0  0  0  0  0
   -1.1776    3.9041   -9.2380 C   0  0  0  0  0  0  0  0  0  0  0  0
   -0.7711    3.4978   -7.9797 C   0  0  0  0  0  0  0  0  0  0  0  0
    0.3794    4.0413   -7.4112 C   0  0  0  0  0  0  0  0  0  0  0  0
    0.8181    3.6111   -6.0785 C   0  0  0  0  0  0  0  0  0  0  0  0
    0.0927    3.9508   -4.9573 N   0  0  0  0  0  0  0  0  0  0  0  0
   -1.0865    4.7734   -4.9123 C   0  0  0  0  0  0  0  0  0  0  0  0
   -2.3550    3.9542   -4.6746 C   0  0  0  0  0  0  0  0  0  0  0  0
    1.9182    2.8630   -5.7263 C   0  0  0  0  0  0  0  0  0  0  0  0
    2.9406    2.2990   -6.6587 C   0  0  0  0  0  0  0  0  0  0  0  0
    2.6586    0.8624   -7.1576 C   0  0  0  0  0  0  0  0  0  0  0  0
    3.6002    0.5556   -8.3245 C   0  0  0  0  0  0  0  0  0  0  0  0
    1.2107    0.7097   -7.6213 C   0  0  0  0  0  0  0  0  0  0  0  0
    2.9046   -0.1479   -6.0321 C   0  0  0  0  0  0  0  0  0  0  0  0
    4.2947   -0.1545   -5.6936 O   0  0  0  0  0  0  0  0  0  0  0  0
    4.6514   -0.8829   -4.6463 C   0  0  0  0  0  0  0  0  0  0  0  0
    6.1423   -0.7681   -4.3638 C   0  0  0  0  0  0  0  0  0  0  0  0
    6.6223   -1.9327   -3.6404 N   0  0  0  0  0  0  0  0  0  0  0  0
    7.8755   -1.6508   -3.0913 N   0  0  0  0  0  0  0  0  0  0  0  0
    8.0969   -1.0236   -1.9125 C   0  0  0  0  0  0  0  0  0  0  0  0
    6.8695   -0.8415   -0.9978 C   0  0  0  0  0  0  0  0  0  0  0  0
    6.9219   -1.8345    0.0519 N   0  0  0  0  0  0  0  0  0  0  0  0
    6.3567   -3.0362   -0.1150 C   0  0  0  0  0  0  0  0  0  0  0  0
    6.4302   -3.9158    1.1359 C   0  0  0  0  0  0  0  0  0  0  0  0
    6.5522   -5.4077    0.8077 C   0  0  0  0  0  0  0  0  0  0  0  0
    6.6312   -6.2304    2.0915 C   0  0  0  0  0  0  0  0  0  0  0  0
    7.8101   -5.6242   -0.0328 C   0  0  0  0  0  0  0  0  0  0  0  0
    5.2525   -3.5806    1.9419 N   0  0  0  0  0  0  0  0  0  0  0  0
    5.4351   -2.6436    2.8895 C   0  0  0  0  0  0  0  0  0  0  0  0
    4.3031   -2.3308    3.8880 C   0  0  0  0  0  0  0  0  0  0  0  0
    4.0840   -3.5352    4.8093 C   0  0  0  0  0  0  0  0  0  0  0  0
    3.0586   -3.1938    5.8939 C   0  0  0  0  0  0  0  0  0  0  0  0
    3.4578   -2.0071    6.6098 N   0  0  0  0  0  0  0  0  0  0  0  0
    3.8043   -2.0874    7.9195 C   0  0  0  0  0  0  0  0  0  0  0  0
    4.2585   -0.8477    8.5037 C   0  0  0  0  0  0  0  0  0  0  0  0
    4.6804    0.0991    9.1150 C   0  0  0  0  0  0  0  0  0  0  0  0
    5.0950    1.3014    9.8335 C   0  0  0  0  0  0  0  0  0  0  0  0
    6.4433    1.6716    9.3904 N   0  0  0  0  0  0  0  0  0  0  0  0
    6.6007    1.7788    7.9562 C   0  0  0  0  0  0  0  0  0  0  0  0
    7.0128    2.8246   10.0511 C   0  0  0  0  0  0  0  0  0  0  0  0
    5.1161    0.9298   11.3256 C   0  0  0  0  0  0  0  0  0  0  0  0
    4.0199    2.3813    9.5804 C   0  0  0  0  0  0  0  0  0  0  0  0
    3.7206   -3.1139    8.5682 O   0  0  0  0  0  0  0  0  0  0  0  0
    3.6082   -0.8391    5.7799 C   0  0  0  0  0  0  0  0  0  0  0  0
    4.6663   -1.0889    4.7040 C   0  0  0  0  0  0  0  0  0  0  0  0
    6.5240   -2.1141    3.0673 O   0  0  0  0  0  0  0  0  0  0  0  0
    3.9952   -4.1012    1.4496 C   0  0  0  0  0  0  0  0  0  0  0  0
    5.7924   -3.3784   -1.1413 O   0  0  0  0  0  0  0  0  0  0  0  0
    6.8383    0.5798   -0.4349 C   0  0  0  0  0  0  0  0  0  0  0  0
    5.4168    1.0530   -0.1189 C   0  0  0  0  0  0  0  0  0  0  0  0
    4.5752    1.2622   -1.3896 C   0  0  0  0  0  0  0  0  0  0  0  0
    3.2461    1.6937   -1.0121 N   0  0  0  0  0  0  0  0  0  0  0  0
    2.6357    0.6924   -0.1525 C   0  0  0  0  0  0  0  0  0  0  0  0
    3.5075    0.5154    1.0878 C   0  0  0  0  0  0  0  0  0  0  0  0
    4.8114    0.1111    0.7431 O   0  0  0  0  0  0  0  0  0  0  0  0
    9.2098   -0.6786   -1.5603 O   0  0  0  0  0  0  0  0  0  0  0  0
    8.8666   -1.6074   -4.1510 C   0  0  0  0  0  0  0  0  0  0  0  0
    8.4926   -0.4951   -5.1391 C   0  0  0  0  0  0  0  0  0  0  0  0
    7.0386   -0.6408   -5.6005 C   0  0  0  0  0  0  0  0  0  0  0  0
    3.8900   -1.5058   -3.9526 O   0  0  0  0  0  0  0  0  0  0  0  0
    1.8847    2.7470   -4.3037 C   0  0  0  0  0  0  0  0  0  0  0  0
    0.7331    3.4375   -3.8623 C   0  0  0  0  0  0  0  0  0  0  0  0
    0.4276    3.5322   -2.5094 C   0  0  0  0  0  0  0  0  0  0  0  0
    1.2745    2.9278   -1.6124 C   0  0  0  0  0  0  0  0  0  0  0  0
    2.4252    2.2269   -2.0242 C   0  0  0  0  0  0  0  0  0  0  0  0
    2.7328    2.1456   -3.3710 C   0  0  0  0  0  0  0  0  0  0  0  0
    3.0988   -2.0492    3.2383 F   0  0  0  0  0  0  0  0  0  0  0  0
    3.1512    7.6675   -7.4580 H   0  0  0  0  0  0  0  0  0  0  0  0
    1.9567    7.4806   -8.7618 H   0  0  0  0  0  0  0  0  0  0  0  0
    1.4261    7.5625   -7.0792 H   0  0  0  0  0  0  0  0  0  0  0  0
    2.4477    5.4095   -6.5637 H   0  0  0  0  0  0  0  0  0  0  0  0
    4.0434    6.5131   -9.6898 H   0  0  0  0  0  0  0  0  0  0  0  0
    4.4775    4.8053   -9.9343 H   0  0  0  0  0  0  0  0  0  0  0  0
    2.7924    5.3398  -10.1804 H   0  0  0  0  0  0  0  0  0  0  0  0
   -0.6716    5.2151  -10.8764 H   0  0  0  0  0  0  0  0  0  0  0  0
   -2.0605    3.4911   -9.7003 H   0  0  0  0  0  0  0  0  0  0  0  0
   -1.3305    2.7472   -7.4398 H   0  0  0  0  0  0  0  0  0  0  0  0
   -0.9685    5.5041   -4.1046 H   0  0  0  0  0  0  0  0  0  0  0  0
   -1.1651    5.3179   -5.8575 H   0  0  0  0  0  0  0  0  0  0  0  0
   -2.2682    3.3820   -3.7547 H   0  0  0  0  0  0  0  0  0  0  0  0
   -3.2140    4.6154   -4.5976 H   0  0  0  0  0  0  0  0  0  0  0  0
   -2.5243    3.2609   -5.4942 H   0  0  0  0  0  0  0  0  0  0  0  0
    3.0187    2.9542   -7.5271 H   0  0  0  0  0  0  0  0  0  0  0  0
    3.9117    2.2957   -6.1603 H   0  0  0  0  0  0  0  0  0  0  0  0
    4.6350    0.6839   -8.0201 H   0  0  0  0  0  0  0  0  0  0  0  0
    3.4652   -0.4690   -8.6647 H   0  0  0  0  0  0  0  0  0  0  0  0
    3.3969    1.2261   -9.1558 H   0  0  0  0  0  0  0  0  0  0  0  0
    0.5243    0.8662   -6.7930 H   0  0  0  0  0  0  0  0  0  0  0  0
    0.9913    1.4357   -8.3996 H   0  0  0  0  0  0  0  0  0  0  0  0
    1.0437   -0.2876   -8.0229 H   0  0  0  0  0  0  0  0  0  0  0  0
    2.3193    0.1052   -5.1423 H   0  0  0  0  0  0  0  0  0  0  0  0
    2.6235   -1.1586   -6.3484 H   0  0  0  0  0  0  0  0  0  0  0  0
    6.2521    0.1590   -3.7616 H   0  0  0  0  0  0  0  0  0  0  0  0
    5.9742   -2.3468   -2.9722 H   0  0  0  0  0  0  0  0  0  0  0  0
    5.9495   -1.0400   -1.5523 H   0  0  0  0  0  0  0  0  0  0  0  0
    7.2913   -1.5696    0.9540 H   0  0  0  0  0  0  0  0  0  0  0  0
    7.3014   -3.6192    1.7285 H   0  0  0  0  0  0  0  0  0  0  0  0
    5.6901   -5.7220    0.2145 H   0  0  0  0  0  0  0  0  0  0  0  0
    5.7572   -6.0809    2.7202 H   0  0  0  0  0  0  0  0  0  0  0  0
    6.7054   -7.2888    1.8542 H   0  0  0  0  0  0  0  0  0  0  0  0
    7.5112   -5.9454    2.6644 H   0  0  0  0  0  0  0  0  0  0  0  0
    7.9320   -6.6815   -0.2548 H   0  0  0  0  0  0  0  0  0  0  0  0
    7.7401   -5.0828   -0.9721 H   0  0  0  0  0  0  0  0  0  0  0  0
    8.6928   -5.2799    0.5024 H   0  0  0  0  0  0  0  0  0  0  0  0
    3.7315   -4.3894    4.2310 H   0  0  0  0  0  0  0  0  0  0  0  0
    5.0408   -3.7904    5.2670 H   0  0  0  0  0  0  0  0  0  0  0  0
    2.0800   -3.0211    5.4309 H   0  0  0  0  0  0  0  0  0  0  0  0
    2.9792   -4.0092    6.6156 H   0  0  0  0  0  0  0  0  0  0  0  0
    6.1186    2.6720    7.5277 H   0  0  0  0  0  0  0  0  0  0  0  0
    7.6663    1.8320    7.7331 H   0  0  0  0  0  0  0  0  0  0  0  0
    6.1936    0.8924    7.4746 H   0  0  0  0  0  0  0  0  0  0  0  0
    6.9464    2.7157   11.1298 H   0  0  0  0  0  0  0  0  0  0  0  0
    8.0682    2.8775    9.7824 H   0  0  0  0  0  0  0  0  0  0  0  0
    6.5411    3.7751    9.7563 H   0  0  0  0  0  0  0  0  0  0  0  0
    4.2229    0.3598   11.5703 H   0  0  0  0  0  0  0  0  0  0  0  0
    5.9883    0.3167   11.5355 H   0  0  0  0  0  0  0  0  0  0  0  0
    5.1373    1.8170   11.9532 H   0  0  0  0  0  0  0  0  0  0  0  0
    3.0485    2.0108    9.8978 H   0  0  0  0  0  0  0  0  0  0  0  0
    4.2508    3.2813   10.1454 H   0  0  0  0  0  0  0  0  0  0  0  0
    3.9643    2.6297    8.5228 H   0  0  0  0  0  0  0  0  0  0  0  0
    2.6459   -0.6232    5.2991 H   0  0  0  0  0  0  0  0  0  0  0  0
    3.8905    0.0126    6.4004 H   0  0  0  0  0  0  0  0  0  0  0  0
    5.6440   -1.2482    5.1571 H   0  0  0  0  0  0  0  0  0  0  0  0
    4.7358   -0.2337    4.0309 H   0  0  0  0  0  0  0  0  0  0  0  0
    3.1532   -3.5202    1.8031 H   0  0  0  0  0  0  0  0  0  0  0  0
    4.0037   -4.0524    0.3595 H   0  0  0  0  0  0  0  0  0  0  0  0
    3.8616   -5.1427    1.7514 H   0  0  0  0  0  0  0  0  0  0  0  0
    7.4402    0.6103    0.4741 H   0  0  0  0  0  0  0  0  0  0  0  0
    7.2870    1.2693   -1.1520 H   0  0  0  0  0  0  0  0  0  0  0  0
    5.4711    2.0265    0.4009 H   0  0  0  0  0  0  0  0  0  0  0  0
    5.0427    2.0421   -1.9949 H   0  0  0  0  0  0  0  0  0  0  0  0
    4.5318    0.3235   -1.9651 H   0  0  0  0  0  0  0  0  0  0  0  0
    1.6358    1.0097    0.1399 H   0  0  0  0  0  0  0  0  0  0  0  0
    2.5614   -0.2753   -0.6770 H   0  0  0  0  0  0  0  0  0  0  0  0
    3.5488    1.4674    1.6408 H   0  0  0  0  0  0  0  0  0  0  0  0
    3.1026   -0.2651    1.7305 H   0  0  0  0  0  0  0  0  0  0  0  0
    9.8409   -1.4214   -3.6996 H   0  0  0  0  0  0  0  0  0  0  0  0
    8.8610   -2.5789   -4.6492 H   0  0  0  0  0  0  0  0  0  0  0  0
    8.6206    0.4703   -4.6433 H   0  0  0  0  0  0  0  0  0  0  0  0
    9.1636   -0.5277   -5.9974 H   0  0  0  0  0  0  0  0  0  0  0  0
    6.9286   -1.5459   -6.1986 H   0  0  0  0  0  0  0  0  0  0  0  0
    6.7416    0.2179   -6.2018 H   0  0  0  0  0  0  0  0  0  0  0  0
   -0.4384    4.0754   -2.1620 H   0  0  0  0  0  0  0  0  0  0  0  0
    1.0709    3.0094   -0.5558 H   0  0  0  0  0  0  0  0  0  0  0  0
    3.6165    1.6325   -3.7142 H   0  0  0  0  0  0  0  0  0  0  0  0
  1  2  1  0  0  0  0
  2  3  1  0  0  0  0
  3  4  1  0  0  0  0
  2  5  1  0  0  0  0
  5  6  4  0  0  0  0
  6  7  4  0  0  0  0
  7  8  4  0  0  0  0
  8  9  4  0  0  0  0
  5 10  4  0  0  0  0
  9 10  4  0  0  0  0
 10 11  1  0  0  0  0
 11 12  1  0  0  0  0
 12 13  1  0  0  0  0
 13 14  1  0  0  0  0
 11 15  2  0  0  0  0
 15 16  1  0  0  0  0
 16 17  1  0  0  0  0
 17 18  1  0  0  0  0
 17 19  1  0  0  0  0
 17 20  1  0  0  0  0
 20 21  1  0  0  0  0
 21 22  1  0  0  0  0
 22 23  1  0  0  0  0
 23 24  1  0  0  0  0
 24 25  1  0  0  0  0
 25 26  4  0  0  0  0
 26 27  1  0  0  0  0
 27 28  1  0  0  0  0
 28 29  4  0  0  0  0
 29 30  1  0  0  0  0
 30 31  1  0  0  0  0
 31 32  1  0  0  0  0
 31 33  1  0  0  0  0
 30 34  1  0  0  0  0
 34 35  4  0  0  0  0
 35 36  1  0  0  0  0
 36 37  1  0  0  0  0
 37 38  1  0  0  0  0
 38 39  1  0  0  0  0
 39 40  4  0  0  0  0
 40 41  1  0  0  0  0
 41 42  3  0  0  0  0
 42 43  1  0  0  0  0
 43 44  1  0  0  0  0
 44 45  1  0  0  0  0
 44 46  1  0  0  0  0
 43 47  1  0  0  0  0
 43 48  1  0  0  0  0
 40 49  2  0  0  0  0
 39 50  1  0  0  0  0
 36 51  1  0  0  0  0
 50 51  1  0  0  0  0
 35 52  2  0  0  0  0
 34 53  1  0  0  0  0
 29 54  2  0  0  0  0
 27 55  1  0  0  0  0
 55 56  1  0  0  0  0
 56 57  1  0  0  0  0
 57 58  1  0  0  0  0
 58 59  1  0  0  0  0
 59 60  1  0  0  0  0
 56 61  1  0  0  0  0
 60 61  1  0  0  0  0
 26 62  2  0  0  0  0
 25 63  1  0  0  0  0
 63 64  1  0  0  0  0
 23 65  1  0  0  0  0
 64 65  1  0  0  0  0
 22 66  2  0  0  0  0
 15 67  4  0  0  0  0
 12 68  1  0  0  0  0
 67 68  4  0  0  0  0
 68 69  4  0  0  0  0
 69 70  2  0  0  0  0
 58 71  1  0  0  0  0
 70 71  4  0  0  0  0
 67 72  4  0  0  0  0
 71 72  4  0  0  0  0
 36 73  1  0  0  0  0
  1 74  1  0  0  0  0
  1 75  1  0  0  0  0
  1 76  1  0  0  0  0
  2 77  1  0  0  0  0
  4 78  1  0  0  0  0
  4 79  1  0  0  0  0
  4 80  1  0  0  0  0
  7 81  1  0  0  0  0
  8 82  1  0  0  0  0
  9 83  1  0  0  0  0
 13 84  1  0  0  0  0
 13 85  1  0  0  0  0
 14 86  1  0  0  0  0
 14 87  1  0  0  0  0
 14 88  1  0  0  0  0
 16 89  1  0  0  0  0
 16 90  1  0  0  0  0
 18 91  1  0  0  0  0
 18 92  1  0  0  0  0
 18 93  1  0  0  0  0
 19 94  1  0  0  0  0
 19 95  1  0  0  0  0
 19 96  1  0  0  0  0
 20 97  1  0  0  0  0
 20 98  1  0  0  0  0
 23 99  1  0  0  0  0
 24100  1  0  0  0  0
 27101  1  0  0  0  0
 28102  1  0  0  0  0
 30103  1  0  0  0  0
 31104  1  0  0  0  0
 32105  1  0  0  0  0
 32106  1  0  0  0  0
 32107  1  0  0  0  0
 33108  1  0  0  0  0
 33109  1  0  0  0  0
 33110  1  0  0  0  0
 37111  1  0  0  0  0
 37112  1  0  0  0  0
 38113  1  0  0  0  0
 38114  1  0  0  0  0
 45115  1  0  0  0  0
 45116  1  0  0  0  0
 45117  1  0  0  0  0
 46118  1  0  0  0  0
 46119  1  0  0  0  0
 46120  1  0  0  0  0
 47121  1  0  0  0  0
 47122  1  0  0  0  0
 47123  1  0  0  0  0
 48124  1  0  0  0  0
 48125  1  0  0  0  0
 48126  1  0  0  0  0
 50127  1  0  0  0  0
 50128  1  0  0  0  0
 51129  1  0  0  0  0
 51130  1  0  0  0  0
 53131  1  0  0  0  0
 53132  1  0  0  0  0
 53133  1  0  0  0  0
 55134  1  0  0  0  0
 55135  1  0  0  0  0
 56136  1  0  0  0  0
 57137  1  0  0  0  0
 57138  1  0  0  0  0
 59139  1  0  0  0  0
 59140  1  0  0  0  0
 60141  1  0  0  0  0
 60142  1  0  0  0  0
 63143  1  0  0  0  0
 63144  1  0  0  0  0
 64145  1  0  0  0  0
 64146  1  0  0  0  0
 65147  1  0  0  0  0
 65148  1  0  0  0  0
 69149  1  0  0  0  0
 70150  1  0  0  0  0
 72151  1  0  0  0  0
M  END
$$$$
