obj07
     RDKit          3D

151157  0  0  0  0  0  0  0  0999 V2000
   17.4003   22.9182   62.6407 C   0  0  0  0  0  0  0  0  0  0  0  0
   16.6536   24.0311   61.8939 C   0  0  2  0  0  0  0  0  0  0  0  0
   16.8297   25.2783   62.5824 O   0  0  0  0  0  0  0  0  0  0  0  0
   18.0820   25.8919   62.3192 C   0  0  0  0  0  0  0  0  0  0  0  0
   15.1602   23.7391   61.7720 C   0  0  0  0  0  0  0  0  0  0  0  0
   14.6100   22.9238   62.7221 N   0  0  0  0  0  0  0  0  0  0  0  0
   13.2912   22.6517   62.6432 C   0  0  0  0  0  0  0  0  0  0  0  0
   12.4635   23.1365   61.6493 C   0  0  0  0  0  0  0  0  0  0  0  0
   13.0237   23.9638   60.6816 C   0  0  0  0  0  0  0  0  0  0  0  0
   14.3843   24.2916   60.7327 C   0  0  0  0  0  0  0  0  0  0  0  0
   14.9477   25.1682   59.6972 C   0  0  0  0  0  0  0  0  0  0  0  0
   15.3274   24.7203   58.4470 N   0  0  0  0  0  0  0  0  0  0  0  0
   15.1262   23.3714   57.9301 C   0  0  0  0  0  0  0  0  0  0  0  0
   13.9023   23.2752   57.0361 C   0  0  0  0  0  0  0  0  0  0  0  0
   15.2337   26.5338   59.7543 C   0  0  0  0  0  0  0  0  0  0  0  0
   14.9143   27.4496   60.9132 C   0  0  0  0  0  0  0  0  0  0  0  0
   13.6318   28.3284   60.7807 C   0  0  0  0  0  0  0  0  0  0  0  0
   13.2950   28.8698   62.1913 C   0  0  0  0  0  0  0  0  0  0  0  0
   12.4143   27.5306   60.2790 C   0  0  0  0  0  0  0  0  0  0  0  0
   13.8524   29.5282   59.8328 C   0  0  0  0  0  0  0  0  0  0  0  0
   14.9042   30.3632   60.3406 O   0  0  0  0  0  0  0  0  0  0  0  0
   15.2565   31.3981   59.5284 C   0  0  0  0  0  0  0  0  0  0  0  0
   16.4728   32.1300   60.1035 C   0  0  1  0  0  0  0  0  0  0  0  0
   16.7743   33.3044   59.2711 N   0  0  0  0  0  0  0  0  0  0  0  0
   17.9866   33.9063   59.6653 N   0  0  0  0  0  0  0  0  0  0  0  0
   19.0442   34.2226   58.7968 C   0  0  0  0  0  0  0  0  0  0  0  0
   19.0688   33.5333   57.4009 C   0  0  1  0  0  0  0  0  0  0  0  0
   19.6091   34.4470   56.3911 N   0  0  0  0  0  0  0  0  0  0  0  0
   18.9006   35.5955   56.0871 C   0  0  0  0  0  0  0  0  0  0  0  0
   19.4185   36.3558   54.8433 C   0  0  2  0  0  0  0  0  0  0  0  0
   19.1734   37.8875   54.9394 C   0  0  0  0  0  0  0  0  0  0  0  0
   19.6174   38.5952   53.6553 C   0  0  0  0  0  0  0  0  0  0  0  0
   19.9359   38.4897   56.1291 C   0  0  0  0  0  0  0  0  0  0  0  0
   18.7856   35.7202   53.6493 N   0  0  0  0  0  0  0  0  0  0  0  0
   19.5410   34.7723   52.9591 C   0  0  0  0  0  0  0  0  0  0  0  0
   18.9657   33.9757   51.7419 C   0  0  0  0  0  0  0  0  0  0  0  0
   20.1306   33.2543   51.0246 C   0  0  0  0  0  0  0  0  0  0  0  0
   21.0421   34.2467   50.2793 C   0  0  0  0  0  0  0  0  0  0  0  0
   20.2801   35.1547   49.4205 N   0  0  0  0  0  0  0  0  0  0  0  0
   20.7373   35.6562   48.2012 C   0  0  0  0  0  0  0  0  0  0  0  0
   22.0264   35.2435   47.6962 C   0  0  0  0  0  0  0  0  0  0  0  0
   23.0986   34.9881   47.2167 C   0  0  0  0  0  0  0  0  0  0  0  0
   24.4216   34.7092   46.5894 C   0  0  0  0  0  0  0  0  0  0  0  0
   25.4896   35.2552   47.4654 N   0  0  0  0  0  0  0  0  0  0  0  0
   25.6079   34.5787   48.7614 C   0  0  0  0  0  0  0  0  0  0  0  0
   26.8129   35.3401   46.8451 C   0  0  0  0  0  0  0  0  0  0  0  0
   24.4011   35.4111   45.2057 C   0  0  0  0  0  0  0  0  0  0  0  0
   24.5374   33.1879   46.3425 C   0  0  0  0  0  0  0  0  0  0  0  0
   20.0831   36.4464   47.5082 O   0  0  0  0  0  0  0  0  0  0  0  0
   19.1088   35.7907   50.0109 C   0  0  0  0  0  0  0  0  0  0  0  0
   18.2187   34.7488   50.6570 C   0  0  0  0  0  0  0  0  0  0  0  0
   20.6859   34.5104   53.3665 O   0  0  0  0  0  0  0  0  0  0  0  0
   17.3265   35.7750   53.5858 C   0  0  0  0  0  0  0  0  0  0  0  0
   17.8932   35.9292   56.7037 O   0  0  0  0  0  0  0  0  0  0  0  0
   19.9426   32.2712   57.5414 C   0  0  0  0  0  0  0  0  0  0  0  0
   19.5187   31.0913   56.6553 C   0  0  1  0  0  0  0  0  0  0  0  0
   18.3491   30.2756   57.2699 C   0  0  0  0  0  0  0  0  0  0  0  0
   18.0230   29.1505   56.3731 N   0  0  0  0  0  0  0  0  0  0  0  0
   17.7082   29.6201   55.0000 C   0  0  0  0  0  0  0  0  0  0  0  0
   18.8668   30.4817   54.4676 C   0  0  0  0  0  0  0  0  0  0  0  0
   19.1787   31.5762   55.3467 O   0  0  0  0  0  0  0  0  0  0  0  0
   19.9862   34.9377   59.1577 O   0  0  0  0  0  0  0  0  0  0  0  0
   17.9264   34.4910   61.0082 C   0  0  0  0  0  0  0  0  0  0  0  0
   17.4727   33.4364   62.0241 C   0  0  0  0  0  0  0  0  0  0  0  0
   16.2576   32.6320   61.5377 C   0  0  0  0  0  0  0  0  0  0  0  0
   14.7521   31.6332   58.4382 O   0  0  0  0  0  0  0  0  0  0  0  0
   15.9708   26.8586   58.5622 C   0  0  0  0  0  0  0  0  0  0  0  0
   15.9870   25.7209   57.7609 C   0  0  0  0  0  0  0  0  0  0  0  0
   16.6097   25.7087   56.5073 C   0  0  0  0  0  0  0  0  0  0  0  0
   17.2564   26.8752   56.0808 C   0  0  0  0  0  0  0  0  0  0  0  0
   17.2958   28.0509   56.8399 C   0  0  0  0  0  0  0  0  0  0  0  0
   16.6456   28.0183   58.0888 C   0  0  0  0  0  0  0  0  0  0  0  0
   18.1059   33.0074   52.1984 F   0  0  0  0  0  0  0  0  0  0  0  0
   17.1346   22.9049   63.7042 H   0  0  0  0  0  0  0  0  0  0  0  0
   17.1837   21.9303   62.2145 H   0  0  0  0  0  0  0  0  0  0  0  0
   18.4827   23.0705   62.5951 H   0  0  0  0  0  0  0  0  0  0  0  0
   17.0820   24.0922   60.8866 H   0  0  0  0  0  0  0  0  0  0  0  0
   18.0919   26.8688   62.8101 H   0  0  0  0  0  0  0  0  0  0  0  0
   18.9013   25.2979   62.7334 H   0  0  0  0  0  0  0  0  0  0  0  0
   18.2282   26.0444   61.2469 H   0  0  0  0  0  0  0  0  0  0  0  0
   12.9039   22.0108   63.4332 H   0  0  0  0  0  0  0  0  0  0  0  0
   11.4097   22.8840   61.6300 H   0  0  0  0  0  0  0  0  0  0  0  0
   12.3912   24.3660   59.8918 H   0  0  0  0  0  0  0  0  0  0  0  0
   16.0307   23.0863   57.3825 H   0  0  0  0  0  0  0  0  0  0  0  0
   15.0455   22.6785   58.7711 H   0  0  0  0  0  0  0  0  0  0  0  0
   12.9952   23.5851   57.5681 H   0  0  0  0  0  0  0  0  0  0  0  0
   14.0017   23.9160   56.1523 H   0  0  0  0  0  0  0  0  0  0  0  0
   13.7615   22.2457   56.6953 H   0  0  0  0  0  0  0  0  0  0  0  0
   14.8088   26.8305   61.8147 H   0  0  0  0  0  0  0  0  0  0  0  0
   15.7916   28.0797   61.1150 H   0  0  0  0  0  0  0  0  0  0  0  0
   14.1338   29.4256   62.6224 H   0  0  0  0  0  0  0  0  0  0  0  0
   12.4304   29.5431   62.1595 H   0  0  0  0  0  0  0  0  0  0  0  0
   13.0500   28.0535   62.8814 H   0  0  0  0  0  0  0  0  0  0  0  0
   12.1965   26.6870   60.9407 H   0  0  0  0  0  0  0  0  0  0  0  0
   11.5165   28.1605   60.2562 H   0  0  0  0  0  0  0  0  0  0  0  0
   12.5588   27.1494   59.2641 H   0  0  0  0  0  0  0  0  0  0  0  0
   14.1020   29.1818   58.8237 H   0  0  0  0  0  0  0  0  0  0  0  0
   12.9375   30.1301   59.7643 H   0  0  0  0  0  0  0  0  0  0  0  0
   17.3126   31.4246   60.0607 H   0  0  0  0  0  0  0  0  0  0  0  0
   16.6572   33.1187   58.2757 H   0  0  0  0  0  0  0  0  0  0  0  0
   18.0667   33.2771   57.0615 H   0  0  0  0  0  0  0  0  0  0  0  0
   20.1305   34.0345   55.6175 H   0  0  0  0  0  0  0  0  0  0  0  0
   20.5050   36.2142   54.8000 H   0  0  0  0  0  0  0  0  0  0  0  0
   18.1117   38.0992   55.1010 H   0  0  0  0  0  0  0  0  0  0  0  0
   19.5200   39.6824   53.7533 H   0  0  0  0  0  0  0  0  0  0  0  0
   20.6632   38.3712   53.4209 H   0  0  0  0  0  0  0  0  0  0  0  0
   18.9986   38.2934   52.8026 H   0  0  0  0  0  0  0  0  0  0  0  0
   19.5862   38.0720   57.0821 H   0  0  0  0  0  0  0  0  0  0  0  0
   21.0126   38.2960   56.0510 H   0  0  0  0  0  0  0  0  0  0  0  0
   19.7929   39.5743   56.1792 H   0  0  0  0  0  0  0  0  0  0  0  0
   20.7212   32.6546   51.7282 H   0  0  0  0  0  0  0  0  0  0  0  0
   19.7166   32.5300   50.3086 H   0  0  0  0  0  0  0  0  0  0  0  0
   21.6103   34.8724   50.9785 H   0  0  0  0  0  0  0  0  0  0  0  0
   21.7700   33.6832   49.6869 H   0  0  0  0  0  0  0  0  0  0  0  0
   26.2494   35.1642   49.4304 H   0  0  0  0  0  0  0  0  0  0  0  0
   24.6425   34.4915   49.2754 H   0  0  0  0  0  0  0  0  0  0  0  0
   26.0414   33.5765   48.6675 H   0  0  0  0  0  0  0  0  0  0  0  0
   27.5351   35.7814   47.5423 H   0  0  0  0  0  0  0  0  0  0  0  0
   27.1982   34.3597   46.5469 H   0  0  0  0  0  0  0  0  0  0  0  0
   26.8154   36.0015   45.9735 H   0  0  0  0  0  0  0  0  0  0  0  0
   24.3697   36.5028   45.3066 H   0  0  0  0  0  0  0  0  0  0  0  0
   25.2737   35.1455   44.5966 H   0  0  0  0  0  0  0  0  0  0  0  0
   23.5160   35.1207   44.6222 H   0  0  0  0  0  0  0  0  0  0  0  0
   24.4062   32.6061   47.2639 H   0  0  0  0  0  0  0  0  0  0  0  0
   23.7631   32.8437   45.6477 H   0  0  0  0  0  0  0  0  0  0  0  0
   25.5048   32.9194   45.9049 H   0  0  0  0  0  0  0  0  0  0  0  0
   19.4643   36.5291   50.7386 H   0  0  0  0  0  0  0  0  0  0  0  0
   18.5337   36.3355   49.2557 H   0  0  0  0  0  0  0  0  0  0  0  0
   17.8850   34.0370   49.8872 H   0  0  0  0  0  0  0  0  0  0  0  0
   17.2832   35.1874   51.0040 H   0  0  0  0  0  0  0  0  0  0  0  0
   16.9018   34.7823   53.7638 H   0  0  0  0  0  0  0  0  0  0  0  0
   16.9227   36.4810   54.3173 H   0  0  0  0  0  0  0  0  0  0  0  0
   17.0185   36.1680   52.6182 H   0  0  0  0  0  0  0  0  0  0  0  0
   20.9762   32.5355   57.2816 H   0  0  0  0  0  0  0  0  0  0  0  0
   19.9811   31.9251   58.5848 H   0  0  0  0  0  0  0  0  0  0  0  0
   20.3855   30.4212   56.5556 H   0  0  0  0  0  0  0  0  0  0  0  0
   18.6624   29.9143   58.2556 H   0  0  0  0  0  0  0  0  0  0  0  0
   17.4626   30.9091   57.3846 H   0  0  0  0  0  0  0  0  0  0  0  0
   17.5464   28.7998   54.2920 H   0  0  0  0  0  0  0  0  0  0  0  0
   16.7884   30.2206   55.0316 H   0  0  0  0  0  0  0  0  0  0  0  0
   19.7718   29.8755   54.3291 H   0  0  0  0  0  0  0  0  0  0  0  0
   18.5996   30.9011   53.4942 H   0  0  0  0  0  0  0  0  0  0  0  0
   18.9001   34.8960   61.3026 H   0  0  0  0  0  0  0  0  0  0  0  0
   17.2201   35.3285   60.9696 H   0  0  0  0  0  0  0  0  0  0  0  0
   18.2999   32.7368   62.1986 H   0  0  0  0  0  0  0  0  0  0  0  0
   17.2525   33.9112   62.9873 H   0  0  0  0  0  0  0  0  0  0  0  0
   15.3561   33.2597   61.5845 H   0  0  0  0  0  0  0  0  0  0  0  0
   16.0826   31.7917   62.2188 H   0  0  0  0  0  0  0  0  0  0  0  0
   16.6269   24.8218   55.8833 H   0  0  0  0  0  0  0  0  0  0  0  0
   17.7897   26.8247   55.1335 H   0  0  0  0  0  0  0  0  0  0  0  0
   16.6464   28.8876   58.7352 H   0  0  0  0  0  0  0  0  0  0  0  0
  1  2  1  0
  2  3  1  0
  2  5  1  0
  3  4  1  0
  5  6  2  0
  5 10  1  0
  6  7  1  0
  7  8  2  0
  8  9  1  0
  9 10  2  0
 10 11  1  0
 11 12  1  0
 11 15  2  0
 12 13  1  0
 12 68  1  0
 13 14  1  0
 15 16  1  0
 15 67  1  0
 16 17  1  0
 17 18  1  0
 17 19  1  0
 17 20  1  0
 20 21  1  0
 21 22  1  0
 22 23  1  0
 22 66  2  0
 23 24  1  0
 23 65  1  0
 24 25  1  0
 25 26  1  0
 25 63  1  0
 26 27  1  0
 26 62  2  0
 27 28  1  0
 27 55  1  0
 28 29  1  0
 29 30  1  0
 29 54  2  0
 30 31  1  0
 30 34  1  0
 31 32  1  0
 31 33  1  0
 34 35  1  0
 34 53  1  0
 35 36  1  0
 35 52  2  0
 36 37  1  0
 36 51  1  0
 36 73  1  0
 37 38  1  0
 38 39  1  0
 39 40  1  0
 39 50  1  0
 40 41  1  0
 40 49  2  0
 42 43  1  0
 43 44  1  0
 43 47  1  0
 43 48  1  0
 44 45  1  0
 44 46  1  0
 50 51  1  0
 55 56  1  0
 56 57  1  0
 56 61  1  0
 57 58  1  0
 58 59  1  0
 58 71  1  0
 59 60  1  0
 60 61  1  0
 63 64  1  0
 64 65  1  0
 67 68  2  0
 67 72  1  0
 68 69  1  0
 69 70  2  0
 70 71  1  0
 71 72  2  0
  1 74  1  0
  1 75  1  0
  1 76  1  0
  2 77  1  6
  4 78  1  0
  4 79  1  0
  4 80  1  0
  7 81  1  0
  8 82  1  0
  9 83  1  0
 13 84  1  0
 13 85  1  0
 14 86  1  0
 14 87  1  0
 14 88  1  0
 16 89  1  0
 16 90  1  0
 18 91  1  0
 18 92  1  0
 18 93  1  0
 19 94  1  0
 19 95  1  0
 19 96  1  0
 20 97  1  0
 20 98  1  0
 23 99  1  1
 24100  1  0
 27101  1  6
 28102  1  0
 30103  1  6
 31104  1  0
 32105  1  0
 32106  1  0
 32107  1  0
 33108  1  0
 33109  1  0
 33110  1  0
 37111  1  0
 37112  1  0
 38113  1  0
 38114  1  0
 45115  1  0
 45116  1  0
 45117  1  0
 46118  1  0
 46119  1  0
 46120  1  0
 47121  1  0
 47122  1  0
 47123  1  0
 48124  1  0
 48125  1  0
 48126  1  0
 50127  1  0
 50128  1  0
 51129  1  0
 51130  1  0
 53131  1  0
 53132  1  0
 53133  1  0
 55134  1  0
 55135  1  0
 56136  1  6
 57137  1  0
 57138  1  0
 59139  1  0
 59140  1  0
 60141  1  0
 60142  1  0
 63143  1  0
 63144  1  0
 64145  1  0
 64146  1  0
 65147  1  0
 65148  1  0
 69149  1  0
 70150  1  0
 72151  1  0
 41 42  3  0
M  END
$$$$
