151       
obj03
C 17.214899 22.963100 61.423901
C 16.436701 24.126301 60.804298
O 16.662800 25.316601 61.576599
C 17.862101 25.990801 61.221298
C 14.932700 23.854500 60.741901
N 14.425500 22.960501 61.640999
C 13.098600 22.714500 61.614601
C 12.226300 23.300900 60.719101
C 12.743800 24.202801 59.796799
C 14.110500 24.504000 59.800400
C 14.634100 25.469000 58.825100
N 14.985000 25.130800 57.532902
C 14.811900 23.817699 56.922100
C 13.547500 23.732300 56.084099
C 14.938100 26.818001 59.006100
C 14.674400 27.618601 60.260502
C 13.397000 28.513599 60.264801
C 13.133200 28.936199 61.731400
C 12.148800 27.768801 59.764500
C 13.588100 29.786301 59.411400
O 14.683500 30.546400 59.943199
C 15.023200 31.657801 59.235699
C 16.260401 32.305599 59.862000
N 16.584200 33.547298 59.139801
N 17.797501 34.097500 59.608200
C 18.866501 34.491600 58.790901
C 18.907200 33.943100 57.339001
N 19.560801 34.905201 56.454601
C 18.941299 36.111698 56.190102
C 19.617800 36.920601 55.063400
C 19.427099 38.448700 55.234402
C 20.072901 38.933300 56.541000
C 20.054899 39.220600 54.065701
N 19.113400 36.392502 53.767101
C 19.892700 35.430599 53.123402
C 19.555700 35.033798 51.662701
C 19.516399 36.276299 50.753101
C 19.328501 35.869202 49.296902
N 20.400200 34.965599 48.917500
C 21.500099 35.499599 48.249100
C 22.692400 34.693001 48.112301
C 23.711500 34.059502 48.020699
C 24.985001 33.302700 47.916000
N 26.041901 34.008099 48.689400
C 25.747700 34.152599 50.120300
C 27.390800 33.466099 48.521599
C 24.725901 31.856501 48.389599
C 25.341999 33.261501 46.410400
O 21.523199 36.635101 47.787300
C 20.421801 33.718700 49.671501
C 20.602400 34.016701 51.154900
O 20.865200 34.930801 53.704300
C 17.696699 36.609402 53.465199
O 17.899500 36.463100 56.740299
C 19.685301 32.614201 57.365200
C 19.235100 31.581900 56.318501
C 18.120501 30.664801 56.876801
N 17.722000 29.690701 55.842899
C 17.304899 30.363300 54.590302
C 18.427999 31.300800 54.111801
O 18.805000 32.251999 55.121498
O 19.810699 35.151199 59.241600
C 17.733601 34.540199 61.005402
C 17.284100 33.384499 61.904999
C 16.053600 32.663601 61.340302
O 14.485600 32.018200 58.196899
C 15.649800 27.244301 57.832298
C 15.623500 26.191299 56.919899
C 16.204500 26.300301 55.649700
C 16.867701 27.491100 55.327599
C 16.964800 28.570801 56.212399
C 16.342199 28.427900 57.466999
F 18.336500 34.407501 51.587502
H 16.983801 22.851400 62.489101
H 16.996099 22.018499 60.914398
H 18.293501 23.136801 61.357800
H 16.808100 24.260099 59.780602
H 17.909300 26.922600 61.791500
H 18.736700 25.389000 61.476799
H 17.871300 26.239401 60.156399
H 12.746200 22.006500 62.359001
H 11.167900 23.066900 60.741100
H 12.077600 24.685301 59.087799
H 15.696300 23.610600 56.310398
H 14.799900 23.058701 57.710899
H 12.655800 23.936100 56.685501
H 13.567100 24.455601 55.262199
H 13.446200 22.731001 55.652901
H 14.598700 26.918400 61.102100
H 15.562500 28.225100 60.482101
H 13.999300 29.443701 62.169498
H 12.277900 29.617399 61.798000
H 12.910700 28.066099 62.358700
H 11.948500 26.882200 60.374100
H 11.260000 28.407200 59.827702
H 12.247700 27.459000 58.719101
H 13.781300 29.530001 58.364601
H 12.684700 30.408300 59.452599
H 17.085501 31.591999 59.745800
H 16.504000 33.436298 58.131302
H 17.899900 33.808701 56.945301
H 20.123199 34.534401 55.687401
H 20.697399 36.728699 55.127102
H 18.358500 38.696201 55.278301
H 19.607100 38.471001 57.416698
H 21.144100 38.700001 56.564098
H 19.964001 40.018700 56.648998
H 19.958099 40.300999 54.218700
H 21.121099 38.987701 53.966499
H 19.566999 38.980999 53.115299
H 18.696800 36.947498 51.022499
H 20.446899 36.848499 50.868999
H 18.374201 35.349998 49.154999
H 19.313299 36.756401 48.658100
H 25.679701 33.190300 50.634998
H 26.535601 34.736198 50.613201
H 24.826700 34.715698 50.289501
H 28.115900 34.060001 49.092899
H 27.473101 32.428101 48.859798
H 27.726900 33.531601 47.482101
H 24.364401 31.818501 49.424900
H 23.952900 31.375401 47.774799
H 25.623699 31.232500 48.319801
H 26.189199 32.599602 46.203701
H 24.498501 32.891102 45.811401
H 25.584999 34.261902 46.029598
H 19.468300 33.206200 49.496700
H 21.214100 33.053501 49.319401
H 21.616600 34.405602 51.318199
H 20.516300 33.079601 51.718399
H 17.084499 36.219398 54.282200
H 17.511499 37.681499 53.350498
H 17.372101 36.105301 52.557701
H 20.748100 32.832100 57.186100
H 19.650999 32.150200 58.360199
H 20.105301 30.961201 56.064899
H 18.506500 30.148100 57.763599
H 17.249500 31.263500 57.161400
H 17.084600 29.655800 53.784100
H 16.397499 30.945801 54.788898
H 19.316900 30.731899 53.818501
H 18.090900 31.865499 53.237598
H 18.704201 34.915298 61.343498
H 17.021500 35.372601 61.057899
H 18.104099 32.658401 61.983898
H 17.078501 33.751900 62.916901
H 15.169800 33.305901 61.451302
H 15.857900 31.761801 61.932899
H 16.181000 25.483801 54.937199
H 17.370399 27.538300 54.362900
H 16.391300 29.221901 58.196899
