 xtb: 6.7.1 (edcfbbe)
          08072517063D

151157  0     0  0            999 V2000
   16.6620   22.8935   61.0687 C   0  0  0  0  0  0  0  0  0  0  0  0
   16.1175   24.1800   60.4513 C   0  0  0  0  0  0  0  0  0  0  0  0
   16.4219   25.3245   61.2355 O   0  0  0  0  0  0  0  0  0  0  0  0
   17.7080   25.8465   61.0307 C   0  0  0  0  0  0  0  0  0  0  0  0
   14.6065   24.1368   60.3257 C   0  0  0  0  0  0  0  0  0  0  0  0
   13.9584   23.2860   61.1017 N   0  0  0  0  0  0  0  0  0  0  0  0
   12.6427   23.2108   61.0225 C   0  0  0  0  0  0  0  0  0  0  0  0
   11.8927   23.9717   60.1408 C   0  0  0  0  0  0  0  0  0  0  0  0
   12.5632   24.8633   59.3207 C   0  0  0  0  0  0  0  0  0  0  0  0
   13.9467   24.9744   59.4144 C   0  0  0  0  0  0  0  0  0  0  0  0
   14.7019   25.8987   58.5556 C   0  0  0  0  0  0  0  0  0  0  0  0
   15.0768   25.5093   57.2884 N   0  0  0  0  0  0  0  0  0  0  0  0
   14.7324   24.2713   56.6429 C   0  0  0  0  0  0  0  0  0  0  0  0
   13.5309   24.4285   55.7113 C   0  0  0  0  0  0  0  0  0  0  0  0
   15.1951   27.1501   58.8366 C   0  0  0  0  0  0  0  0  0  0  0  0
   15.0085   27.9099   60.1100 C   0  0  0  0  0  0  0  0  0  0  0  0
   13.8376   28.9202   60.1184 C   0  0  0  0  0  0  0  0  0  0  0  0
   13.6064   29.3900   61.5567 C   0  0  0  0  0  0  0  0  0  0  0  0
   12.5571   28.2839   59.5813 C   0  0  0  0  0  0  0  0  0  0  0  0
   14.1681   30.1328   59.2422 C   0  0  0  0  0  0  0  0  0  0  0  0
   15.2789   30.8403   59.8029 O   0  0  0  0  0  0  0  0  0  0  0  0
   15.6643   31.9397   59.1687 C   0  0  0  0  0  0  0  0  0  0  0  0
   16.8662   32.5791   59.8484 C   0  0  0  0  0  0  0  0  0  0  0  0
   17.0260   33.9606   59.4318 N   0  0  0  0  0  0  0  0  0  0  0  0
   18.2992   34.4080   59.7909 N   0  0  0  0  0  0  0  0  0  0  0  0
   19.4306   34.2347   59.0693 C   0  0  0  0  0  0  0  0  0  0  0  0
   19.2482   33.7174   57.6287 C   0  0  0  0  0  0  0  0  0  0  0  0
   19.4024   34.8250   56.7120 N   0  0  0  0  0  0  0  0  0  0  0  0
   18.3511   35.5773   56.3648 C   0  0  0  0  0  0  0  0  0  0  0  0
   18.6871   36.6311   55.3063 C   0  0  0  0  0  0  0  0  0  0  0  0
   17.8768   37.9213   55.4708 C   0  0  0  0  0  0  0  0  0  0  0  0
   18.1500   38.4992   56.8589 C   0  0  0  0  0  0  0  0  0  0  0  0
   18.2648   38.9331   54.3952 C   0  0  0  0  0  0  0  0  0  0  0  0
   18.5008   35.9760   54.0082 N   0  0  0  0  0  0  0  0  0  0  0  0
   19.6020   35.4336   53.4583 C   0  0  0  0  0  0  0  0  0  0  0  0
   19.5408   34.8511   52.0328 C   0  0  0  0  0  0  0  0  0  0  0  0
   19.3475   35.9858   51.0221 C   0  0  0  0  0  0  0  0  0  0  0  0
   19.4068   35.4368   49.5944 C   0  0  0  0  0  0  0  0  0  0  0  0
   20.6282   34.6990   49.3831 N   0  0  0  0  0  0  0  0  0  0  0  0
   21.5426   35.1408   48.4828 C   0  0  0  0  0  0  0  0  0  0  0  0
   22.7300   34.3258   48.3787 C   0  0  0  0  0  0  0  0  0  0  0  0
   23.7693   33.7528   48.1793 C   0  0  0  0  0  0  0  0  0  0  0  0
   24.9607   32.9391   47.9466 C   0  0  0  0  0  0  0  0  0  0  0  0
   26.0877   33.5608   48.6473 N   0  0  0  0  0  0  0  0  0  0  0  0
   25.8554   33.8066   50.0544 C   0  0  0  0  0  0  0  0  0  0  0  0
   27.3698   32.9242   48.4463 C   0  0  0  0  0  0  0  0  0  0  0  0
   24.6404   31.4980   48.4017 C   0  0  0  0  0  0  0  0  0  0  0  0
   25.2047   32.9602   46.4284 C   0  0  0  0  0  0  0  0  0  0  0  0
   21.3733   36.1281   47.7918 O   0  0  0  0  0  0  0  0  0  0  0  0
   20.8174   33.5900   50.2832 C   0  0  0  0  0  0  0  0  0  0  0  0
   20.8286   34.0826   51.7315 C   0  0  0  0  0  0  0  0  0  0  0  0
   20.6932   35.4977   54.0087 O   0  0  0  0  0  0  0  0  0  0  0  0
   17.1248   35.7764   53.6067 C   0  0  0  0  0  0  0  0  0  0  0  0
   17.2260   35.4052   56.8044 O   0  0  0  0  0  0  0  0  0  0  0  0
   20.2533   32.6017   57.3407 C   0  0  0  0  0  0  0  0  0  0  0  0
   19.7405   31.6112   56.2919 C   0  0  0  0  0  0  0  0  0  0  0  0
   18.5810   30.7506   56.8222 C   0  0  0  0  0  0  0  0  0  0  0  0
   18.1451   29.8520   55.7755 N   0  0  0  0  0  0  0  0  0  0  0  0
   17.7172   30.6223   54.6194 C   0  0  0  0  0  0  0  0  0  0  0  0
   18.8924   31.4665   54.1337 C   0  0  0  0  0  0  0  0  0  0  0  0
   19.3505   32.3352   55.1429 O   0  0  0  0  0  0  0  0  0  0  0  0
   20.5291   34.5262   59.5053 O   0  0  0  0  0  0  0  0  0  0  0  0
   18.3585   34.5898   61.2298 C   0  0  0  0  0  0  0  0  0  0  0  0
   18.0910   33.2428   61.9137 C   0  0  0  0  0  0  0  0  0  0  0  0
   16.8028   32.6074   61.3805 C   0  0  0  0  0  0  0  0  0  0  0  0
   15.1737   32.3482   58.1491 O   0  0  0  0  0  0  0  0  0  0  0  0
   15.9343   27.5558   57.6830 C   0  0  0  0  0  0  0  0  0  0  0  0
   15.8223   26.5135   56.7341 C   0  0  0  0  0  0  0  0  0  0  0  0
   16.4395   26.6011   55.4918 C   0  0  0  0  0  0  0  0  0  0  0  0
   17.1741   27.7286   55.2146 C   0  0  0  0  0  0  0  0  0  0  0  0
   17.3151   28.7756   56.1458 C   0  0  0  0  0  0  0  0  0  0  0  0
   16.6997   28.6847   57.3820 C   0  0  0  0  0  0  0  0  0  0  0  0
   18.4876   33.9449   51.8855 F   0  0  0  0  0  0  0  0  0  0  0  0
   16.2469   22.7711   62.0639 H   0  0  0  0  0  0  0  0  0  0  0  0
   16.3717   22.0428   60.4592 H   0  0  0  0  0  0  0  0  0  0  0  0
   17.7467   22.9310   61.1302 H   0  0  0  0  0  0  0  0  0  0  0  0
   16.5461   24.3178   59.4433 H   0  0  0  0  0  0  0  0  0  0  0  0
   17.7781   26.7322   61.6592 H   0  0  0  0  0  0  0  0  0  0  0  0
   18.4923   25.1391   61.3214 H   0  0  0  0  0  0  0  0  0  0  0  0
   17.8562   26.1321   59.9812 H   0  0  0  0  0  0  0  0  0  0  0  0
   12.1770   22.4981   61.6904 H   0  0  0  0  0  0  0  0  0  0  0  0
   10.8198   23.8686   60.0921 H   0  0  0  0  0  0  0  0  0  0  0  0
   12.0209   25.4715   58.6109 H   0  0  0  0  0  0  0  0  0  0  0  0
   15.5997   23.9267   56.0708 H   0  0  0  0  0  0  0  0  0  0  0  0
   14.5117   23.5272   57.4140 H   0  0  0  0  0  0  0  0  0  0  0  0
   12.6486   24.7187   56.2758 H   0  0  0  0  0  0  0  0  0  0  0  0
   13.7313   25.1939   54.9655 H   0  0  0  0  0  0  0  0  0  0  0  0
   13.3261   23.4890   55.2050 H   0  0  0  0  0  0  0  0  0  0  0  0
   14.8469   27.1899   60.9141 H   0  0  0  0  0  0  0  0  0  0  0  0
   15.9241   28.4616   60.3321 H   0  0  0  0  0  0  0  0  0  0  0  0
   14.5125   29.8314   61.9622 H   0  0  0  0  0  0  0  0  0  0  0  0
   12.8148   30.1356   61.5915 H   0  0  0  0  0  0  0  0  0  0  0  0
   13.3184   28.5504   62.1845 H   0  0  0  0  0  0  0  0  0  0  0  0
   12.3033   27.4107   60.1763 H   0  0  0  0  0  0  0  0  0  0  0  0
   11.7305   28.9894   59.6320 H   0  0  0  0  0  0  0  0  0  0  0  0
   12.6872   27.9797   58.5456 H   0  0  0  0  0  0  0  0  0  0  0  0
   14.4178   29.8233   58.2224 H   0  0  0  0  0  0  0  0  0  0  0  0
   13.3151   30.8184   59.1894 H   0  0  0  0  0  0  0  0  0  0  0  0
   17.7380   31.9581   59.5520 H   0  0  0  0  0  0  0  0  0  0  0  0
   16.7786   34.1759   58.4676 H   0  0  0  0  0  0  0  0  0  0  0  0
   18.2307   33.3463   57.4843 H   0  0  0  0  0  0  0  0  0  0  0  0
   20.2887   34.9473   56.2435 H   0  0  0  0  0  0  0  0  0  0  0  0
   19.7509   36.8789   55.3749 H   0  0  0  0  0  0  0  0  0  0  0  0
   16.8105   37.6933   55.4026 H   0  0  0  0  0  0  0  0  0  0  0  0
   17.8256   37.8077   57.6315 H   0  0  0  0  0  0  0  0  0  0  0  0
   19.2122   38.6949   56.9909 H   0  0  0  0  0  0  0  0  0  0  0  0
   17.6090   39.4336   56.9860 H   0  0  0  0  0  0  0  0  0  0  0  0
   17.6728   39.8389   54.5017 H   0  0  0  0  0  0  0  0  0  0  0  0
   19.3158   39.1973   54.4921 H   0  0  0  0  0  0  0  0  0  0  0  0
   18.1080   38.5371   53.3950 H   0  0  0  0  0  0  0  0  0  0  0  0
   18.3860   36.4731   51.1847 H   0  0  0  0  0  0  0  0  0  0  0  0
   20.1430   36.7161   51.1763 H   0  0  0  0  0  0  0  0  0  0  0  0
   18.5524   34.7709   49.4243 H   0  0  0  0  0  0  0  0  0  0  0  0
   19.3801   36.2524   48.8691 H   0  0  0  0  0  0  0  0  0  0  0  0
   25.8926   32.8937   50.6697 H   0  0  0  0  0  0  0  0  0  0  0  0
   26.6271   34.4872   50.4144 H   0  0  0  0  0  0  0  0  0  0  0  0
   24.8865   34.2831   50.1881 H   0  0  0  0  0  0  0  0  0  0  0  0
   28.1354   33.5713   48.8748 H   0  0  0  0  0  0  0  0  0  0  0  0
   27.4505   31.9386   48.9313 H   0  0  0  0  0  0  0  0  0  0  0  0
   27.5781   32.8156   47.3857 H   0  0  0  0  0  0  0  0  0  0  0  0
   24.4212   31.4699   49.4669 H   0  0  0  0  0  0  0  0  0  0  0  0
   23.7724   31.1282   47.8615 H   0  0  0  0  0  0  0  0  0  0  0  0
   25.4831   30.8424   48.1955 H   0  0  0  0  0  0  0  0  0  0  0  0
   25.9019   32.1811   46.1311 H   0  0  0  0  0  0  0  0  0  0  0  0
   24.2647   32.7942   45.9072 H   0  0  0  0  0  0  0  0  0  0  0  0
   25.5976   33.9302   46.1364 H   0  0  0  0  0  0  0  0  0  0  0  0
   19.9917   32.8798   50.1485 H   0  0  0  0  0  0  0  0  0  0  0  0
   21.7564   33.0882   50.0455 H   0  0  0  0  0  0  0  0  0  0  0  0
   21.6747   34.7462   51.9051 H   0  0  0  0  0  0  0  0  0  0  0  0
   20.9065   33.2407   52.4201 H   0  0  0  0  0  0  0  0  0  0  0  0
   16.5392   35.5270   54.4929 H   0  0  0  0  0  0  0  0  0  0  0  0
   16.7149   36.6860   53.1615 H   0  0  0  0  0  0  0  0  0  0  0  0
   17.0248   34.9621   52.9010 H   0  0  0  0  0  0  0  0  0  0  0  0
   21.1842   33.0503   56.9923 H   0  0  0  0  0  0  0  0  0  0  0  0
   20.4732   32.0573   58.2607 H   0  0  0  0  0  0  0  0  0  0  0  0
   20.5597   30.9223   56.0176 H   0  0  0  0  0  0  0  0  0  0  0  0
   18.9389   30.1616   57.6697 H   0  0  0  0  0  0  0  0  0  0  0  0
   17.7554   31.4038   57.1495 H   0  0  0  0  0  0  0  0  0  0  0  0
   17.3880   29.9531   53.8257 H   0  0  0  0  0  0  0  0  0  0  0  0
   16.8826   31.2928   54.8863 H   0  0  0  0  0  0  0  0  0  0  0  0
   19.7111   30.8004   53.8182 H   0  0  0  0  0  0  0  0  0  0  0  0
   18.5887   32.0970   53.2994 H   0  0  0  0  0  0  0  0  0  0  0  0
   19.3469   34.9713   61.4851 H   0  0  0  0  0  0  0  0  0  0  0  0
   17.5913   35.3165   61.5040 H   0  0  0  0  0  0  0  0  0  0  0  0
   18.9338   32.5762   61.7146 H   0  0  0  0  0  0  0  0  0  0  0  0
   18.0195   33.3877   62.9916 H   0  0  0  0  0  0  0  0  0  0  0  0
   15.9433   33.2098   61.6765 H   0  0  0  0  0  0  0  0  0  0  0  0
   16.6815   31.5994   61.7766 H   0  0  0  0  0  0  0  0  0  0  0  0
   16.3614   25.8063   54.7651 H   0  0  0  0  0  0  0  0  0  0  0  0
   17.6832   27.8097   54.2666 H   0  0  0  0  0  0  0  0  0  0  0  0
   16.8062   29.4641   58.1190 H   0  0  0  0  0  0  0  0  0  0  0  0
  1  2  1  0  0  0  0
  2  3  1  0  0  0  0
  3  4  1  0  0  0  0
  2  5  1  0  0  0  0
  5  6  4  0  0  0  0
  6  7  4  0  0  0  0
  7  8  4  0  0  0  0
  8  9  4  0  0  0  0
  5 10  4  0  0  0  0
  9 10  4  0  0  0  0
 10 11  1  0  0  0  0
 11 12  1  0  0  0  0
 12 13  1  0  0  0  0
 13 14  1  0  0  0  0
 11 15  2  0  0  0  0
 15 16  1  0  0  0  0
 16 17  1  0  0  0  0
 17 18  1  0  0  0  0
 17 19  1  0  0  0  0
 17 20  1  0  0  0  0
 20 21  1  0  0  0  0
 21 22  1  0  0  0  0
 22 23  1  0  0  0  0
 23 24  1  0  0  0  0
 24 25  1  0  0  0  0
 25 26  4  0  0  0  0
 26 27  1  0  0  0  0
 27 28  1  0  0  0  0
 28 29  4  0  0  0  0
 29 30  1  0  0  0  0
 30 31  1  0  0  0  0
 31 32  1  0  0  0  0
 31 33  1  0  0  0  0
 30 34  1  0  0  0  0
 34 35  4  0  0  0  0
 35 36  1  0  0  0  0
 36 37  1  0  0  0  0
 37 38  1  0  0  0  0
 38 39  1  0  0  0  0
 39 40  4  0  0  0  0
 40 41  1  0  0  0  0
 41 42  3  0  0  0  0
 42 43  1  0  0  0  0
 43 44  1  0  0  0  0
 44 45  1  0  0  0  0
 44 46  1  0  0  0  0
 43 47  1  0  0  0  0
 43 48  1  0  0  0  0
 40 49  2  0  0  0  0
 39 50  1  0  0  0  0
 36 51  1  0  0  0  0
 50 51  1  0  0  0  0
 35 52  2  0  0  0  0
 34 53  1  0  0  0  0
 29 54  2  0  0  0  0
 27 55  1  0  0  0  0
 55 56  1  0  0  0  0
 56 57  1  0  0  0  0
 57 58  1  0  0  0  0
 58 59  1  0  0  0  0
 59 60  1  0  0  0  0
 56 61  1  0  0  0  0
 60 61  1  0  0  0  0
 26 62  2  0  0  0  0
 25 63  1  0  0  0  0
 63 64  1  0  0  0  0
 23 65  1  0  0  0  0
 64 65  1  0  0  0  0
 22 66  2  0  0  0  0
 15 67  4  0  0  0  0
 12 68  1  0  0  0  0
 67 68  4  0  0  0  0
 68 69  4  0  0  0  0
 69 70  2  0  0  0  0
 58 71  1  0  0  0  0
 70 71  4  0  0  0  0
 67 72  4  0  0  0  0
 71 72  4  0  0  0  0
 36 73  1  0  0  0  0
  1 74  1  0  0  0  0
  1 75  1  0  0  0  0
  1 76  1  0  0  0  0
  2 77  1  0  0  0  0
  4 78  1  0  0  0  0
  4 79  1  0  0  0  0
  4 80  1  0  0  0  0
  7 81  1  0  0  0  0
  8 82  1  0  0  0  0
  9 83  1  0  0  0  0
 13 84  1  0  0  0  0
 13 85  1  0  0  0  0
 14 86  1  0  0  0  0
 14 87  1  0  0  0  0
 14 88  1  0  0  0  0
 16 89  1  0  0  0  0
 16 90  1  0  0  0  0
 18 91  1  0  0  0  0
 18 92  1  0  0  0  0
 18 93  1  0  0  0  0
 19 94  1  0  0  0  0
 19 95  1  0  0  0  0
 19 96  1  0  0  0  0
 20 97  1  0  0  0  0
 20 98  1  0  0  0  0
 23 99  1  0  0  0  0
 24100  1  0  0  0  0
 27101  1  0  0  0  0
 28102  1  0  0  0  0
 30103  1  0  0  0  0
 31104  1  0  0  0  0
 32105  1  0  0  0  0
 32106  1  0  0  0  0
 32107  1  0  0  0  0
 33108  1  0  0  0  0
 33109  1  0  0  0  0
 33110  1  0  0  0  0
 37111  1  0  0  0  0
 37112  1  0  0  0  0
 38113  1  0  0  0  0
 38114  1  0  0  0  0
 45115  1  0  0  0  0
 45116  1  0  0  0  0
 45117  1  0  0  0  0
 46118  1  0  0  0  0
 46119  1  0  0  0  0
 46120  1  0  0  0  0
 47121  1  0  0  0  0
 47122  1  0  0  0  0
 47123  1  0  0  0  0
 48124  1  0  0  0  0
 48125  1  0  0  0  0
 48126  1  0  0  0  0
 50127  1  0  0  0  0
 50128  1  0  0  0  0
 51129  1  0  0  0  0
 51130  1  0  0  0  0
 53131  1  0  0  0  0
 53132  1  0  0  0  0
 53133  1  0  0  0  0
 55134  1  0  0  0  0
 55135  1  0  0  0  0
 56136  1  0  0  0  0
 57137  1  0  0  0  0
 57138  1  0  0  0  0
 59139  1  0  0  0  0
 59140  1  0  0  0  0
 60141  1  0  0  0  0
 60142  1  0  0  0  0
 63143  1  0  0  0  0
 63144  1  0  0  0  0
 64145  1  0  0  0  0
 64146  1  0  0  0  0
 65147  1  0  0  0  0
 65148  1  0  0  0  0
 69149  1  0  0  0  0
 70150  1  0  0  0  0
 72151  1  0  0  0  0
M  END
