 energy: -221.264407644974 gnorm: 0.000374856890 xtb: 6.7.1 (edcfbbe)
          08182520243D

151157  0     0  0            999 V2000
    0.4290   15.2770  -12.9526 C   0  0  0  0  0  0  0  0  0  0  0  0
    0.0418   14.4433  -11.7334 C   0  0  0  0  0  0  0  0  0  0  0  0
   -0.6458   15.2130  -10.7571 O   0  0  0  0  0  0  0  0  0  0  0  0
   -2.0245   15.3453  -10.9863 C   0  0  0  0  0  0  0  0  0  0  0  0
    1.2618   13.8519  -11.0531 C   0  0  0  0  0  0  0  0  0  0  0  0
    2.4481   14.2851  -11.4427 N   0  0  0  0  0  0  0  0  0  0  0  0
    3.5351   13.7825  -10.8861 C   0  0  0  0  0  0  0  0  0  0  0  0
    3.5026   12.8014   -9.9089 C   0  0  0  0  0  0  0  0  0  0  0  0
    2.2640   12.3401   -9.4947 C   0  0  0  0  0  0  0  0  0  0  0  0
    1.1098   12.8728  -10.0605 C   0  0  0  0  0  0  0  0  0  0  0  0
   -0.2233   12.3873   -9.6759 C   0  0  0  0  0  0  0  0  0  0  0  0
   -0.7758   11.3282  -10.3655 N   0  0  0  0  0  0  0  0  0  0  0  0
   -0.1159   10.5303  -11.3635 C   0  0  0  0  0  0  0  0  0  0  0  0
    0.5065    9.2718  -10.7598 C   0  0  0  0  0  0  0  0  0  0  0  0
   -1.1068   12.8541   -8.7336 C   0  0  0  0  0  0  0  0  0  0  0  0
   -0.9765   14.0107   -7.7940 C   0  0  0  0  0  0  0  0  0  0  0  0
    0.0238   13.8766   -6.6114 C   0  0  0  0  0  0  0  0  0  0  0  0
   -0.5583   14.5902   -5.3871 C   0  0  0  0  0  0  0  0  0  0  0  0
    1.3458   14.5593   -6.9793 C   0  0  0  0  0  0  0  0  0  0  0  0
    0.3344   12.4107   -6.2520 C   0  0  0  0  0  0  0  0  0  0  0  0
   -0.5402   11.8778   -5.2519 O   0  0  0  0  0  0  0  0  0  0  0  0
   -1.0617   10.6777   -5.4464 C   0  0  0  0  0  0  0  0  0  0  0  0
   -1.8004   10.1941   -4.2001 C   0  0  0  0  0  0  0  0  0  0  0  0
   -2.0223    8.7629   -4.3464 N   0  0  0  0  0  0  0  0  0  0  0  0
   -2.7767    8.2227   -3.2996 N   0  0  0  0  0  0  0  0  0  0  0  0
   -4.0470    7.7874   -3.3445 C   0  0  0  0  0  0  0  0  0  0  0  0
   -4.8245    8.0557   -4.6362 C   0  0  0  0  0  0  0  0  0  0  0  0
   -5.9142    7.1171   -4.7248 N   0  0  0  0  0  0  0  0  0  0  0  0
   -6.1855    6.4499   -5.8607 C   0  0  0  0  0  0  0  0  0  0  0  0
   -7.3771    5.4937   -5.7553 C   0  0  0  0  0  0  0  0  0  0  0  0
   -6.9111    4.0336   -5.6015 C   0  0  0  0  0  0  0  0  0  0  0  0
   -8.1076    3.0878   -5.6716 C   0  0  0  0  0  0  0  0  0  0  0  0
   -6.1854    3.8707   -4.2670 C   0  0  0  0  0  0  0  0  0  0  0  0
   -8.2605    5.7091   -6.8974 N   0  0  0  0  0  0  0  0  0  0  0  0
   -9.4001    6.3813   -6.6512 C   0  0  0  0  0  0  0  0  0  0  0  0
  -10.3975    6.6450   -7.7952 C   0  0  0  0  0  0  0  0  0  0  0  0
  -11.2449    7.8776   -7.4648 C   0  0  0  0  0  0  0  0  0  0  0  0
  -12.3528    8.0572   -8.5048 C   0  0  0  0  0  0  0  0  0  0  0  0
  -13.1475    6.8600   -8.6007 N   0  0  0  0  0  0  0  0  0  0  0  0
  -14.4357    6.7441   -8.1916 C   0  0  0  0  0  0  0  0  0  0  0  0
  -15.0515    7.9746   -7.7579 C   0  0  0  0  0  0  0  0  0  0  0  0
  -15.6980    8.9246   -7.3975 C   0  0  0  0  0  0  0  0  0  0  0  0
  -16.4335   10.0555   -6.8335 C   0  0  0  0  0  0  0  0  0  0  0  0
  -16.8142    9.7863   -5.4367 N   0  0  0  0  0  0  0  0  0  0  0  0
  -15.6797    9.5899   -4.5526 C   0  0  0  0  0  0  0  0  0  0  0  0
  -17.7541    8.6879   -5.2924 C   0  0  0  0  0  0  0  0  0  0  0  0
  -15.5545   11.3157   -6.9017 C   0  0  0  0  0  0  0  0  0  0  0  0
  -17.6891   10.2973   -7.6863 C   0  0  0  0  0  0  0  0  0  0  0  0
  -15.0471    5.6904   -8.2007 O   0  0  0  0  0  0  0  0  0  0  0  0
  -12.4004    5.6859   -8.9789 C   0  0  0  0  0  0  0  0  0  0  0  0
  -11.2940    5.4108   -7.9580 C   0  0  0  0  0  0  0  0  0  0  0  0
   -9.7291    6.7215   -5.5231 O   0  0  0  0  0  0  0  0  0  0  0  0
   -7.7580    5.3841   -8.2158 C   0  0  0  0  0  0  0  0  0  0  0  0
   -5.5591    6.6230   -6.8883 O   0  0  0  0  0  0  0  0  0  0  0  0
   -5.3447    9.5084   -4.5755 C   0  0  0  0  0  0  0  0  0  0  0  0
   -4.9862   10.3218   -5.8244 C   0  0  0  0  0  0  0  0  0  0  0  0
   -5.8891   10.0050   -7.0287 C   0  0  0  0  0  0  0  0  0  0  0  0
   -5.7700   11.0700   -8.0054 N   0  0  0  0  0  0  0  0  0  0  0  0
   -6.3308   12.2989   -7.4697 C   0  0  0  0  0  0  0  0  0  0  0  0
   -6.1458   12.4008   -5.9396 C   0  0  0  0  0  0  0  0  0  0  0  0
   -4.9896   11.7134   -5.5153 O   0  0  0  0  0  0  0  0  0  0  0  0
   -4.5853    7.2316   -2.4000 O   0  0  0  0  0  0  0  0  0  0  0  0
   -2.0342    8.2833   -2.0554 C   0  0  0  0  0  0  0  0  0  0  0  0
   -1.7209    9.7489   -1.7436 C   0  0  0  0  0  0  0  0  0  0  0  0
   -0.9800   10.3881   -2.9191 C   0  0  0  0  0  0  0  0  0  0  0  0
   -0.9708   10.0275   -6.4554 O   0  0  0  0  0  0  0  0  0  0  0  0
   -2.2784   12.0443   -8.8545 C   0  0  0  0  0  0  0  0  0  0  0  0
   -2.0274   11.0933   -9.8685 C   0  0  0  0  0  0  0  0  0  0  0  0
   -2.9807   10.1459  -10.2235 C   0  0  0  0  0  0  0  0  0  0  0  0
   -4.1921   10.1801   -9.5744 C   0  0  0  0  0  0  0  0  0  0  0  0
   -4.4712   11.1346   -8.5821 C   0  0  0  0  0  0  0  0  0  0  0  0
   -3.5146   12.0593   -8.2112 C   0  0  0  0  0  0  0  0  0  0  0  0
   -9.7607    6.9026   -9.0051 F   0  0  0  0  0  0  0  0  0  0  0  0
    1.0614   16.1008  -12.6376 H   0  0  0  0  0  0  0  0  0  0  0  0
    0.9798   14.6622  -13.6576 H   0  0  0  0  0  0  0  0  0  0  0  0
   -0.4595   15.6698  -13.4407 H   0  0  0  0  0  0  0  0  0  0  0  0
   -0.6101   13.6097  -12.0487 H   0  0  0  0  0  0  0  0  0  0  0  0
   -2.4147   15.9405  -10.1628 H   0  0  0  0  0  0  0  0  0  0  0  0
   -2.2380   15.8582  -11.9304 H   0  0  0  0  0  0  0  0  0  0  0  0
   -2.5213   14.3667  -10.9903 H   0  0  0  0  0  0  0  0  0  0  0  0
    4.4713   14.1832  -11.2520 H   0  0  0  0  0  0  0  0  0  0  0  0
    4.4140   12.4073   -9.4871 H   0  0  0  0  0  0  0  0  0  0  0  0
    2.1857   11.5723   -8.7374 H   0  0  0  0  0  0  0  0  0  0  0  0
   -0.8535   10.2505  -12.1224 H   0  0  0  0  0  0  0  0  0  0  0  0
    0.6575   11.1377  -11.8439 H   0  0  0  0  0  0  0  0  0  0  0  0
    1.2862    9.5380  -10.0508 H   0  0  0  0  0  0  0  0  0  0  0  0
   -0.2511    8.6957  -10.2348 H   0  0  0  0  0  0  0  0  0  0  0  0
    0.9418    8.6564  -11.5427 H   0  0  0  0  0  0  0  0  0  0  0  0
   -0.6914   14.8922   -8.3720 H   0  0  0  0  0  0  0  0  0  0  0  0
   -1.9704   14.1914   -7.3822 H   0  0  0  0  0  0  0  0  0  0  0  0
    0.1354   14.5372   -4.5508 H   0  0  0  0  0  0  0  0  0  0  0  0
   -0.7405   15.6363   -5.6213 H   0  0  0  0  0  0  0  0  0  0  0  0
   -1.4948   14.1312   -5.0812 H   0  0  0  0  0  0  0  0  0  0  0  0
    2.0443   14.5231   -6.1451 H   0  0  0  0  0  0  0  0  0  0  0  0
    1.8060   14.0805   -7.8377 H   0  0  0  0  0  0  0  0  0  0  0  0
    1.1687   15.6025   -7.2283 H   0  0  0  0  0  0  0  0  0  0  0  0
    0.2763   11.7735   -7.1386 H   0  0  0  0  0  0  0  0  0  0  0  0
    1.3420   12.3465   -5.8264 H   0  0  0  0  0  0  0  0  0  0  0  0
   -2.7344   10.7778   -4.1263 H   0  0  0  0  0  0  0  0  0  0  0  0
   -2.3747    8.5189   -5.2644 H   0  0  0  0  0  0  0  0  0  0  0  0
   -4.2165    7.8994   -5.5327 H   0  0  0  0  0  0  0  0  0  0  0  0
   -6.3571    6.8853   -3.8462 H   0  0  0  0  0  0  0  0  0  0  0  0
   -7.9735    5.7581   -4.8760 H   0  0  0  0  0  0  0  0  0  0  0  0
   -6.2066    3.7888   -6.4030 H   0  0  0  0  0  0  0  0  0  0  0  0
   -8.8405    3.3536   -4.9131 H   0  0  0  0  0  0  0  0  0  0  0  0
   -8.5895    3.1333   -6.6444 H   0  0  0  0  0  0  0  0  0  0  0  0
   -7.7854    2.0642   -5.4973 H   0  0  0  0  0  0  0  0  0  0  0  0
   -6.8491    4.1082   -3.4385 H   0  0  0  0  0  0  0  0  0  0  0  0
   -5.8514    2.8424   -4.1506 H   0  0  0  0  0  0  0  0  0  0  0  0
   -5.3139    4.5178   -4.2087 H   0  0  0  0  0  0  0  0  0  0  0  0
  -11.6663    7.7455   -6.4688 H   0  0  0  0  0  0  0  0  0  0  0  0
  -10.5999    8.7575   -7.4545 H   0  0  0  0  0  0  0  0  0  0  0  0
  -12.9940    8.8974   -8.2334 H   0  0  0  0  0  0  0  0  0  0  0  0
  -11.8996    8.2573   -9.4835 H   0  0  0  0  0  0  0  0  0  0  0  0
  -16.0583    9.4335   -3.5434 H   0  0  0  0  0  0  0  0  0  0  0  0
  -15.0627    8.7226   -4.8296 H   0  0  0  0  0  0  0  0  0  0  0  0
  -15.0547   10.4789   -4.5374 H   0  0  0  0  0  0  0  0  0  0  0  0
  -17.9502    8.5448   -4.2308 H   0  0  0  0  0  0  0  0  0  0  0  0
  -18.6971    8.9361   -5.7727 H   0  0  0  0  0  0  0  0  0  0  0  0
  -17.3767    7.7424   -5.7064 H   0  0  0  0  0  0  0  0  0  0  0  0
  -16.0208   12.1090   -6.3237 H   0  0  0  0  0  0  0  0  0  0  0  0
  -14.5555   11.1306   -6.5161 H   0  0  0  0  0  0  0  0  0  0  0  0
  -15.4578   11.6403   -7.9351 H   0  0  0  0  0  0  0  0  0  0  0  0
  -18.3339   11.0128   -7.1829 H   0  0  0  0  0  0  0  0  0  0  0  0
  -17.4015   10.6993   -8.6549 H   0  0  0  0  0  0  0  0  0  0  0  0
  -18.2360    9.3748   -7.8588 H   0  0  0  0  0  0  0  0  0  0  0  0
  -13.0958    4.8455   -9.0251 H   0  0  0  0  0  0  0  0  0  0  0  0
  -11.9561    5.8478   -9.9678 H   0  0  0  0  0  0  0  0  0  0  0  0
  -10.7019    4.5541   -8.2819 H   0  0  0  0  0  0  0  0  0  0  0  0
  -11.7318    5.1836   -6.9849 H   0  0  0  0  0  0  0  0  0  0  0  0
   -6.8854    4.7489   -8.1096 H   0  0  0  0  0  0  0  0  0  0  0  0
   -8.5089    4.8571   -8.8031 H   0  0  0  0  0  0  0  0  0  0  0  0
   -7.4513    6.2820   -8.7531 H   0  0  0  0  0  0  0  0  0  0  0  0
   -6.4288    9.4875   -4.4455 H   0  0  0  0  0  0  0  0  0  0  0  0
   -4.9279   10.0230   -3.7054 H   0  0  0  0  0  0  0  0  0  0  0  0
   -3.9486   10.1117   -6.1183 H   0  0  0  0  0  0  0  0  0  0  0  0
   -5.5901    9.0541   -7.4703 H   0  0  0  0  0  0  0  0  0  0  0  0
   -6.9375    9.9313   -6.7236 H   0  0  0  0  0  0  0  0  0  0  0  0
   -5.8735   13.1465   -7.9803 H   0  0  0  0  0  0  0  0  0  0  0  0
   -7.4044   12.3028   -7.6989 H   0  0  0  0  0  0  0  0  0  0  0  0
   -5.9966   13.4362   -5.6270 H   0  0  0  0  0  0  0  0  0  0  0  0
   -7.0310   12.0076   -5.4203 H   0  0  0  0  0  0  0  0  0  0  0  0
   -2.6490    7.8283   -1.2787 H   0  0  0  0  0  0  0  0  0  0  0  0
   -1.1073    7.7164   -2.1758 H   0  0  0  0  0  0  0  0  0  0  0  0
   -2.6555   10.2848   -1.5637 H   0  0  0  0  0  0  0  0  0  0  0  0
   -1.1146    9.8083   -0.8398 H   0  0  0  0  0  0  0  0  0  0  0  0
   -0.0140    9.8972   -3.0488 H   0  0  0  0  0  0  0  0  0  0  0  0
   -0.8139   11.4499   -2.7422 H   0  0  0  0  0  0  0  0  0  0  0  0
   -2.7877    9.4072  -10.9868 H   0  0  0  0  0  0  0  0  0  0  0  0
   -4.9617    9.4669   -9.8253 H   0  0  0  0  0  0  0  0  0  0  0  0
   -3.7067   12.7706   -7.4225 H   0  0  0  0  0  0  0  0  0  0  0  0
  1  2  1  0  0  0  0
  2  3  1  0  0  0  0
  2  5  1  0  0  0  0
  3  4  1  0  0  0  0
  5  6  2  0  0  0  0
  5 10  1  0  0  0  0
  6  7  1  0  0  0  0
  7  8  2  0  0  0  0
  8  9  1  0  0  0  0
  9 10  2  0  0  0  0
 10 11  1  0  0  0  0
 11 12  1  0  0  0  0
 11 15  2  0  0  0  0
 12 13  1  0  0  0  0
 12 68  1  0  0  0  0
 13 14  1  0  0  0  0
 15 16  1  0  0  0  0
 15 67  1  0  0  0  0
 16 17  1  0  0  0  0
 17 18  1  0  0  0  0
 17 19  1  0  0  0  0
 17 20  1  0  0  0  0
 20 21  1  0  0  0  0
 21 22  1  0  0  0  0
 22 23  1  0  0  0  0
 22 66  2  0  0  0  0
 23 24  1  0  0  0  0
 23 65  1  0  0  0  0
 24 25  1  0  0  0  0
 25 26  1  0  0  0  0
 25 63  1  0  0  0  0
 26 27  1  0  0  0  0
 26 62  2  0  0  0  0
 27 28  1  0  0  0  0
 27 55  1  0  0  0  0
 28 29  1  0  0  0  0
 29 30  1  0  0  0  0
 29 54  2  0  0  0  0
 30 31  1  0  0  0  0
 30 34  1  0  0  0  0
 31 32  1  0  0  0  0
 31 33  1  0  0  0  0
 34 35  1  0  0  0  0
 34 53  1  0  0  0  0
 35 36  1  0  0  0  0
 35 52  2  0  0  0  0
 36 37  1  0  0  0  0
 36 51  1  0  0  0  0
 36 73  1  0  0  0  0
 37 38  1  0  0  0  0
 38 39  1  0  0  0  0
 39 40  1  0  0  0  0
 39 50  1  0  0  0  0
 40 41  1  0  0  0  0
 40 49  2  0  0  0  0
 42 43  1  0  0  0  0
 43 44  1  0  0  0  0
 43 47  1  0  0  0  0
 43 48  1  0  0  0  0
 44 45  1  0  0  0  0
 44 46  1  0  0  0  0
 50 51  1  0  0  0  0
 55 56  1  0  0  0  0
 56 57  1  0  0  0  0
 56 61  1  0  0  0  0
 57 58  1  0  0  0  0
 58 59  1  0  0  0  0
 58 71  1  0  0  0  0
 59 60  1  0  0  0  0
 60 61  1  0  0  0  0
 63 64  1  0  0  0  0
 64 65  1  0  0  0  0
 67 68  2  0  0  0  0
 67 72  1  0  0  0  0
 68 69  1  0  0  0  0
 69 70  2  0  0  0  0
 70 71  1  0  0  0  0
 71 72  2  0  0  0  0
 41 42  3  0  0  0  0
  1 74  1  0  0  0  0
  1 75  1  0  0  0  0
  1 76  1  0  0  0  0
  2 77  1  0  0  0  0
  4 78  1  0  0  0  0
  4 79  1  0  0  0  0
  4 80  1  0  0  0  0
  7 81  1  0  0  0  0
  8 82  1  0  0  0  0
  9 83  1  0  0  0  0
 13 84  1  0  0  0  0
 13 85  1  0  0  0  0
 14 86  1  0  0  0  0
 14 87  1  0  0  0  0
 14 88  1  0  0  0  0
 16 89  1  0  0  0  0
 16 90  1  0  0  0  0
 18 91  1  0  0  0  0
 18 92  1  0  0  0  0
 18 93  1  0  0  0  0
 19 94  1  0  0  0  0
 19 95  1  0  0  0  0
 19 96  1  0  0  0  0
 20 97  1  0  0  0  0
 20 98  1  0  0  0  0
 23 99  1  0  0  0  0
 24100  1  0  0  0  0
 27101  1  0  0  0  0
 28102  1  0  0  0  0
 30103  1  0  0  0  0
 31104  1  0  0  0  0
 32105  1  0  0  0  0
 32106  1  0  0  0  0
 32107  1  0  0  0  0
 33108  1  0  0  0  0
 33109  1  0  0  0  0
 33110  1  0  0  0  0
 37111  1  0  0  0  0
 37112  1  0  0  0  0
 38113  1  0  0  0  0
 38114  1  0  0  0  0
 45115  1  0  0  0  0
 45116  1  0  0  0  0
 45117  1  0  0  0  0
 46118  1  0  0  0  0
 46119  1  0  0  0  0
 46120  1  0  0  0  0
 47121  1  0  0  0  0
 47122  1  0  0  0  0
 47123  1  0  0  0  0
 48124  1  0  0  0  0
 48125  1  0  0  0  0
 48126  1  0  0  0  0
 50127  1  0  0  0  0
 50128  1  0  0  0  0
 51129  1  0  0  0  0
 51130  1  0  0  0  0
 53131  1  0  0  0  0
 53132  1  0  0  0  0
 53133  1  0  0  0  0
 55134  1  0  0  0  0
 55135  1  0  0  0  0
 56136  1  0  0  0  0
 57137  1  0  0  0  0
 57138  1  0  0  0  0
 59139  1  0  0  0  0
 59140  1  0  0  0  0
 60141  1  0  0  0  0
 60142  1  0  0  0  0
 63143  1  0  0  0  0
 63144  1  0  0  0  0
 64145  1  0  0  0  0
 64146  1  0  0  0  0
 65147  1  0  0  0  0
 65148  1  0  0  0  0
 69149  1  0  0  0  0
 70150  1  0  0  0  0
 72151  1  0  0  0  0
M  END
$$$$
