mol_bioactive_31
     RDKit          3D

151157  0  0  0  0  0  0  0  0999 V2000
   -2.0553    3.5766    5.4222 C   0  0  0  0  0  0  0  0  0  0  0  0
   -3.0788    2.4462    5.4172 C   0  0  2  0  0  0  0  0  0  0  0  0
   -2.5215    1.2670    4.8239 O   0  0  0  0  0  0  0  0  0  0  0  0
   -1.8580    0.4328    5.7623 C   0  0  0  0  0  0  0  0  0  0  0  0
   -4.3827    2.8848    4.7600 C   0  0  0  0  0  0  0  0  0  0  0  0
   -5.3667    3.1991    5.6647 N   0  0  0  0  0  0  0  0  0  0  0  0
   -6.5439    3.6688    5.2066 C   0  0  0  0  0  0  0  0  0  0  0  0
   -6.8137    3.8704    3.8705 C   0  0  0  0  0  0  0  0  0  0  0  0
   -5.8171    3.5575    2.9545 C   0  0  0  0  0  0  0  0  0  0  0  0
   -4.5790    3.0468    3.3771 C   0  0  0  0  0  0  0  0  0  0  0  0
   -3.5821    2.7468    2.3401 C   0  0  0  0  0  0  0  0  0  0  0  0
   -2.8065    3.7242    1.7281 N   0  0  0  0  0  0  0  0  0  0  0  0
   -2.8400    5.1515    2.0208 C   0  0  0  0  0  0  0  0  0  0  0  0
   -3.6835    5.9325    1.0261 C   0  0  0  0  0  0  0  0  0  0  0  0
   -3.2535    1.5246    1.7481 C   0  0  0  0  0  0  0  0  0  0  0  0
   -3.7985    0.1496    2.0725 C   0  0  0  0  0  0  0  0  0  0  0  0
   -5.0009   -0.3766    1.2379 C   0  0  0  0  0  0  0  0  0  0  0  0
   -5.3847   -1.7636    1.8065 C   0  0  0  0  0  0  0  0  0  0  0  0
   -6.2224    0.5456    1.4051 C   0  0  0  0  0  0  0  0  0  0  0  0
   -4.7094   -0.5112   -0.2772 C   0  0  0  0  0  0  0  0  0  0  0  0
   -3.8718   -1.6463   -0.5875 O   0  0  0  0  0  0  0  0  0  0  0  0
   -4.2231   -2.3201   -1.7295 C   0  0  0  0  0  0  0  0  0  0  0  0
   -3.3005   -3.5078   -2.0329 C   0  0  1  0  0  0  0  0  0  0  0  0
   -2.6814   -4.0653   -0.8194 N   0  0  0  0  0  0  0  0  0  0  0  0
   -1.8035   -5.1358   -1.1371 N   0  0  0  0  0  0  0  0  0  0  0  0
   -0.4025   -5.0805   -1.1086 C   0  0  0  0  0  0  0  0  0  0  0  0
    0.2504   -3.6926   -0.9523 C   0  0  1  0  0  0  0  0  0  0  0  0
    1.4061   -3.7380   -0.0707 N   0  0  0  0  0  0  0  0  0  0  0  0
    1.2655   -3.5594    1.2896 C   0  0  0  0  0  0  0  0  0  0  0  0
    2.5895   -3.5718    2.0965 C   0  0  2  0  0  0  0  0  0  0  0  0
    2.8177   -4.9394    2.7941 C   0  0  0  0  0  0  0  0  0  0  0  0
    4.1903   -4.9735    3.4788 C   0  0  0  0  0  0  0  0  0  0  0  0
    2.7340   -6.1143    1.8100 C   0  0  0  0  0  0  0  0  0  0  0  0
    2.5823   -2.3861    3.0017 N   0  0  0  0  0  0  0  0  0  0  0  0
    3.0187   -1.1824    2.4392 C   0  0  0  0  0  0  0  0  0  0  0  0
    2.7598    0.1691    3.1565 C   0  0  0  0  0  0  0  0  0  0  0  0
    3.6391    1.2552    2.5141 C   0  0  0  0  0  0  0  0  0  0  0  0
    3.3317    2.6294    3.0765 C   0  0  0  0  0  0  0  0  0  0  0  0
    1.9118    2.9318    2.9732 N   0  0  0  0  0  0  0  0  0  0  0  0
    1.4469    4.2241    2.7604 C   0  0  0  0  0  0  0  0  0  0  0  0
    2.2609    5.1150    1.9663 C   0  0  0  0  0  0  0  0  0  0  0  0
    2.8695    5.8436    1.2284 C   0  0  0  0  0  0  0  0  0  0  0  0
    3.5599    6.7285    0.2602 C   0  0  0  0  0  0  0  0  0  0  0  0
    4.6396    7.5369    0.8881 N   0  0  0  0  0  0  0  0  0  0  0  0
    4.1724    8.4496    1.9364 C   0  0  0  0  0  0  0  0  0  0  0  0
    5.7681    6.7511    1.3928 C   0  0  0  0  0  0  0  0  0  0  0  0
    4.1268    5.8462   -0.8800 C   0  0  0  0  0  0  0  0  0  0  0  0
    2.5046    7.6534   -0.3922 C   0  0  0  0  0  0  0  0  0  0  0  0
    0.3669    4.6487    3.1521 O   0  0  0  0  0  0  0  0  0  0  0  0
    1.0126    1.9607    3.5799 C   0  0  0  0  0  0  0  0  0  0  0  0
    1.2785    0.5516    3.0609 C   0  0  0  0  0  0  0  0  0  0  0  0
    3.5750   -1.1834    1.3329 O   0  0  0  0  0  0  0  0  0  0  0  0
    1.8253   -2.4724    4.2508 C   0  0  0  0  0  0  0  0  0  0  0  0
    0.1622   -3.3980    1.8102 O   0  0  0  0  0  0  0  0  0  0  0  0
    0.6130   -3.1597   -2.3547 C   0  0  0  0  0  0  0  0  0  0  0  0
    1.0334   -1.6795   -2.4046 C   0  0  1  0  0  0  0  0  0  0  0  0
    0.0962   -0.7934   -1.5696 C   0  0  0  0  0  0  0  0  0  0  0  0
    0.5095    0.6231   -1.5645 N   0  0  0  0  0  0  0  0  0  0  0  0
    1.9382    0.7426   -1.1667 C   0  0  0  0  0  0  0  0  0  0  0  0
    2.8207   -0.1956   -2.0103 C   0  0  0  0  0  0  0  0  0  0  0  0
    2.3883   -1.5665   -1.9386 O   0  0  0  0  0  0  0  0  0  0  0  0
    0.3012   -6.0775   -1.3047 O   0  0  0  0  0  0  0  0  0  0  0  0
   -2.4917   -6.3098   -1.6733 C   0  0  0  0  0  0  0  0  0  0  0  0
   -3.2385   -5.8954   -2.9445 C   0  0  0  0  0  0  0  0  0  0  0  0
   -4.0963   -4.6419   -2.7105 C   0  0  0  0  0  0  0  0  0  0  0  0
   -5.1297   -1.9800   -2.4848 O   0  0  0  0  0  0  0  0  0  0  0  0
   -2.1810    1.7865    0.8323 C   0  0  0  0  0  0  0  0  0  0  0  0
   -1.9270    3.1513    0.8275 C   0  0  0  0  0  0  0  0  0  0  0  0
   -0.9232    3.7082    0.0172 C   0  0  0  0  0  0  0  0  0  0  0  0
   -0.1437    2.8460   -0.7715 C   0  0  0  0  0  0  0  0  0  0  0  0
   -0.3328    1.4598   -0.7752 C   0  0  0  0  0  0  0  0  0  0  0  0
   -1.3851    0.9566    0.0164 C   0  0  0  0  0  0  0  0  0  0  0  0
    3.1121    0.1234    4.4809 F   0  0  0  0  0  0  0  0  0  0  0  0
   -1.1747    3.3045    6.0152 H   0  0  0  0  0  0  0  0  0  0  0  0
   -1.6921    3.7839    4.4127 H   0  0  0  0  0  0  0  0  0  0  0  0
   -2.4749    4.5011    5.8357 H   0  0  0  0  0  0  0  0  0  0  0  0
   -3.3248    2.2202    6.4642 H   0  0  0  0  0  0  0  0  0  0  0  0
   -2.5700    0.0418    6.4963 H   0  0  0  0  0  0  0  0  0  0  0  0
   -1.4229   -0.4101    5.2201 H   0  0  0  0  0  0  0  0  0  0  0  0
   -1.0510    0.9721    6.2679 H   0  0  0  0  0  0  0  0  0  0  0  0
   -7.2847    3.8916    5.9691 H   0  0  0  0  0  0  0  0  0  0  0  0
   -7.7732    4.2552    3.5485 H   0  0  0  0  0  0  0  0  0  0  0  0
   -6.0135    3.7023    1.8945 H   0  0  0  0  0  0  0  0  0  0  0  0
   -3.2157    5.2959    3.0369 H   0  0  0  0  0  0  0  0  0  0  0  0
   -1.8130    5.5225    2.0107 H   0  0  0  0  0  0  0  0  0  0  0  0
   -3.6912    6.9966    1.2894 H   0  0  0  0  0  0  0  0  0  0  0  0
   -3.2869    5.8376    0.0081 H   0  0  0  0  0  0  0  0  0  0  0  0
   -4.7194    5.5784    1.0126 H   0  0  0  0  0  0  0  0  0  0  0  0
   -2.9718   -0.5700    2.0013 H   0  0  0  0  0  0  0  0  0  0  0  0
   -4.0865    0.1404    3.1314 H   0  0  0  0  0  0  0  0  0  0  0  0
   -5.7100   -1.6863    2.8502 H   0  0  0  0  0  0  0  0  0  0  0  0
   -6.2065   -2.2097    1.2359 H   0  0  0  0  0  0  0  0  0  0  0  0
   -4.5400   -2.4591    1.7775 H   0  0  0  0  0  0  0  0  0  0  0  0
   -6.4501    0.7169    2.4636 H   0  0  0  0  0  0  0  0  0  0  0  0
   -6.0610    1.5089    0.9137 H   0  0  0  0  0  0  0  0  0  0  0  0
   -7.1166    0.1020    0.9526 H   0  0  0  0  0  0  0  0  0  0  0  0
   -5.6722   -0.5921   -0.7955 H   0  0  0  0  0  0  0  0  0  0  0  0
   -4.2206    0.3864   -0.6691 H   0  0  0  0  0  0  0  0  0  0  0  0
   -2.5255   -3.1302   -2.7087 H   0  0  0  0  0  0  0  0  0  0  0  0
   -2.2953   -3.3621   -0.1886 H   0  0  0  0  0  0  0  0  0  0  0  0
   -0.4733   -3.0325   -0.4835 H   0  0  0  0  0  0  0  0  0  0  0  0
    2.3245   -3.8785   -0.4790 H   0  0  0  0  0  0  0  0  0  0  0  0
    3.4092   -3.4443    1.3769 H   0  0  0  0  0  0  0  0  0  0  0  0
    2.0447   -5.1026    3.5546 H   0  0  0  0  0  0  0  0  0  0  0  0
    4.3094   -4.1521    4.1892 H   0  0  0  0  0  0  0  0  0  0  0  0
    4.3262   -5.9108    4.0288 H   0  0  0  0  0  0  0  0  0  0  0  0
    4.9990   -4.8969    2.7433 H   0  0  0  0  0  0  0  0  0  0  0  0
    3.0113   -7.0533    2.2986 H   0  0  0  0  0  0  0  0  0  0  0  0
    1.7171   -6.2382    1.4291 H   0  0  0  0  0  0  0  0  0  0  0  0
    3.4061   -5.9693    0.9568 H   0  0  0  0  0  0  0  0  0  0  0  0
    4.6972    1.0261    2.6879 H   0  0  0  0  0  0  0  0  0  0  0  0
    3.4901    1.2852    1.4291 H   0  0  0  0  0  0  0  0  0  0  0  0
    3.5998    2.6812    4.1382 H   0  0  0  0  0  0  0  0  0  0  0  0
    3.9403    3.3780    2.5639 H   0  0  0  0  0  0  0  0  0  0  0  0
    3.7170    7.9238    2.7826 H   0  0  0  0  0  0  0  0  0  0  0  0
    5.0067    9.0455    2.3246 H   0  0  0  0  0  0  0  0  0  0  0  0
    3.4565    9.1798    1.5477 H   0  0  0  0  0  0  0  0  0  0  0  0
    5.4709    6.0270    2.1587 H   0  0  0  0  0  0  0  0  0  0  0  0
    6.2810    6.2199    0.5860 H   0  0  0  0  0  0  0  0  0  0  0  0
    6.5289    7.4068    1.8311 H   0  0  0  0  0  0  0  0  0  0  0  0
    4.7715    5.0432   -0.5046 H   0  0  0  0  0  0  0  0  0  0  0  0
    3.3195    5.3482   -1.4345 H   0  0  0  0  0  0  0  0  0  0  0  0
    4.7002    6.4439   -1.5983 H   0  0  0  0  0  0  0  0  0  0  0  0
    1.9265    8.2172    0.3485 H   0  0  0  0  0  0  0  0  0  0  0  0
    2.9707    8.3671   -1.0813 H   0  0  0  0  0  0  0  0  0  0  0  0
    1.7708    7.0725   -0.9679 H   0  0  0  0  0  0  0  0  0  0  0  0
    1.1495    2.0083    4.6664 H   0  0  0  0  0  0  0  0  0  0  0  0
   -0.0248    2.2278    3.3646 H   0  0  0  0  0  0  0  0  0  0  0  0
    0.9523    0.4844    2.0164 H   0  0  0  0  0  0  0  0  0  0  0  0
    0.6513   -0.1439    3.6276 H   0  0  0  0  0  0  0  0  0  0  0  0
    2.1268   -3.3552    4.8158 H   0  0  0  0  0  0  0  0  0  0  0  0
    1.9949   -1.6167    4.8996 H   0  0  0  0  0  0  0  0  0  0  0  0
    0.7579   -2.5317    4.0300 H   0  0  0  0  0  0  0  0  0  0  0  0
    1.4181   -3.7753   -2.7778 H   0  0  0  0  0  0  0  0  0  0  0  0
   -0.2528   -3.2858   -3.0149 H   0  0  0  0  0  0  0  0  0  0  0  0
    1.0186   -1.3565   -3.4541 H   0  0  0  0  0  0  0  0  0  0  0  0
   -0.9225   -0.8967   -1.9634 H   0  0  0  0  0  0  0  0  0  0  0  0
    0.1393   -1.1350   -0.5314 H   0  0  0  0  0  0  0  0  0  0  0  0
    2.3089    1.7657   -1.2837 H   0  0  0  0  0  0  0  0  0  0  0  0
    2.0300    0.4554   -0.1155 H   0  0  0  0  0  0  0  0  0  0  0  0
    2.8282    0.1172   -3.0607 H   0  0  0  0  0  0  0  0  0  0  0  0
    3.8518   -0.1582   -1.6444 H   0  0  0  0  0  0  0  0  0  0  0  0
   -1.7871   -7.1152   -1.9002 H   0  0  0  0  0  0  0  0  0  0  0  0
   -3.1910   -6.6736   -0.9112 H   0  0  0  0  0  0  0  0  0  0  0  0
   -2.5106   -5.6766   -3.7348 H   0  0  0  0  0  0  0  0  0  0  0  0
   -3.8674   -6.7192   -3.3010 H   0  0  0  0  0  0  0  0  0  0  0  0
   -4.9618   -4.9091   -2.0894 H   0  0  0  0  0  0  0  0  0  0  0  0
   -4.5010   -4.2973   -3.6703 H   0  0  0  0  0  0  0  0  0  0  0  0
   -0.7312    4.7763    0.0063 H   0  0  0  0  0  0  0  0  0  0  0  0
    0.6246    3.2883   -1.4001 H   0  0  0  0  0  0  0  0  0  0  0  0
   -1.6068   -0.1011    0.0671 H   0  0  0  0  0  0  0  0  0  0  0  0
  1  2  1  0
  2  3  1  0
  2  5  1  0
  3  4  1  0
  5  6  2  0
  5 10  1  0
  6  7  1  0
  7  8  2  0
  8  9  1  0
  9 10  2  0
 10 11  1  0
 11 12  1  0
 11 15  2  0
 12 13  1  0
 12 68  1  0
 13 14  1  0
 15 16  1  0
 15 67  1  0
 16 17  1  0
 17 18  1  0
 17 19  1  0
 17 20  1  0
 20 21  1  0
 21 22  1  0
 22 23  1  0
 22 66  2  0
 23 24  1  0
 23 65  1  0
 24 25  1  0
 25 26  1  0
 25 63  1  0
 26 27  1  0
 26 62  2  0
 27 28  1  0
 27 55  1  0
 28 29  1  0
 29 30  1  0
 29 54  2  0
 30 31  1  0
 30 34  1  0
 31 32  1  0
 31 33  1  0
 34 35  1  0
 34 53  1  0
 35 36  1  0
 35 52  2  0
 36 37  1  0
 36 51  1  0
 36 73  1  0
 37 38  1  0
 38 39  1  0
 39 40  1  0
 39 50  1  0
 40 41  1  0
 40 49  2  0
 42 43  1  0
 43 44  1  0
 43 47  1  0
 43 48  1  0
 44 45  1  0
 44 46  1  0
 50 51  1  0
 55 56  1  0
 56 57  1  0
 56 61  1  0
 57 58  1  0
 58 59  1  0
 58 71  1  0
 59 60  1  0
 60 61  1  0
 63 64  1  0
 64 65  1  0
 67 68  2  0
 67 72  1  0
 68 69  1  0
 69 70  2  0
 70 71  1  0
 71 72  2  0
 41 42  3  0
  1 74  1  0
  1 75  1  0
  1 76  1  0
  2 77  1  1
  4 78  1  0
  4 79  1  0
  4 80  1  0
  7 81  1  0
  8 82  1  0
  9 83  1  0
 13 84  1  0
 13 85  1  0
 14 86  1  0
 14 87  1  0
 14 88  1  0
 16 89  1  0
 16 90  1  0
 18 91  1  0
 18 92  1  0
 18 93  1  0
 19 94  1  0
 19 95  1  0
 19 96  1  0
 20 97  1  0
 20 98  1  0
 23 99  1  6
 24100  1  0
 27101  1  1
 28102  1  0
 30103  1  6
 31104  1  0
 32105  1  0
 32106  1  0
 32107  1  0
 33108  1  0
 33109  1  0
 33110  1  0
 37111  1  0
 37112  1  0
 38113  1  0
 38114  1  0
 45115  1  0
 45116  1  0
 45117  1  0
 46118  1  0
 46119  1  0
 46120  1  0
 47121  1  0
 47122  1  0
 47123  1  0
 48124  1  0
 48125  1  0
 48126  1  0
 50127  1  0
 50128  1  0
 51129  1  0
 51130  1  0
 53131  1  0
 53132  1  0
 53133  1  0
 55134  1  0
 55135  1  0
 56136  1  6
 57137  1  0
 57138  1  0
 59139  1  0
 59140  1  0
 60141  1  0
 60142  1  0
 63143  1  0
 63144  1  0
 64145  1  0
 64146  1  0
 65147  1  0
 65148  1  0
 69149  1  0
 70150  1  0
 72151  1  0
M  END
$$$$
