mol_bioactive_18
     RDKit          3D

151157  0  0  0  0  0  0  0  0999 V2000
   -1.6874    3.6345   -1.0176 C   0  0  0  0  0  0  0  0  0  0  0  0
   -2.1138    3.5981    0.4471 C   0  0  2  0  0  0  0  0  0  0  0  0
   -1.0766    3.0419    1.2656 O   0  0  0  0  0  0  0  0  0  0  0  0
   -0.1504    4.0162    1.7258 C   0  0  0  0  0  0  0  0  0  0  0  0
   -3.4521    2.8880    0.6150 C   0  0  0  0  0  0  0  0  0  0  0  0
   -4.5061    3.7504    0.7896 N   0  0  0  0  0  0  0  0  0  0  0  0
   -5.7527    3.2426    0.8706 C   0  0  0  0  0  0  0  0  0  0  0  0
   -6.0356    1.9000    0.7627 C   0  0  0  0  0  0  0  0  0  0  0  0
   -4.9714    1.0270    0.5788 C   0  0  0  0  0  0  0  0  0  0  0  0
   -3.6485    1.4997    0.5169 C   0  0  0  0  0  0  0  0  0  0  0  0
   -2.5840    0.4970    0.3568 C   0  0  0  0  0  0  0  0  0  0  0  0
   -2.2834   -0.1103   -0.8547 N   0  0  0  0  0  0  0  0  0  0  0  0
   -2.9211    0.1685   -2.1354 C   0  0  0  0  0  0  0  0  0  0  0  0
   -3.9721   -0.8668   -2.5027 C   0  0  0  0  0  0  0  0  0  0  0  0
   -1.7581   -0.0798    1.3254 C   0  0  0  0  0  0  0  0  0  0  0  0
   -1.6828    0.2619    2.7995 C   0  0  0  0  0  0  0  0  0  0  0  0
   -2.5350   -0.5774    3.7977 C   0  0  0  0  0  0  0  0  0  0  0  0
   -4.0235   -0.5638    3.4099 C   0  0  0  0  0  0  0  0  0  0  0  0
   -2.4152    0.1050    5.1799 C   0  0  0  0  0  0  0  0  0  0  0  0
   -2.0832   -2.0569    3.8867 C   0  0  0  0  0  0  0  0  0  0  0  0
   -0.8481   -2.2529    4.6083 O   0  0  0  0  0  0  0  0  0  0  0  0
   -0.9873   -2.7558    5.8774 C   0  0  0  0  0  0  0  0  0  0  0  0
    0.3610   -3.2141    6.4423 C   0  0  1  0  0  0  0  0  0  0  0  0
    1.3435   -2.1149    6.4685 N   0  0  0  0  0  0  0  0  0  0  0  0
    2.5975   -2.5875    6.9594 N   0  0  0  0  0  0  0  0  0  0  0  0
    3.6118   -3.1347    6.1547 C   0  0  0  0  0  0  0  0  0  0  0  0
    3.4862   -2.9794    4.6267 C   0  0  1  0  0  0  0  0  0  0  0  0
    4.4403   -1.9792    4.1758 N   0  0  0  0  0  0  0  0  0  0  0  0
    4.0847   -0.6529    4.0589 C   0  0  0  0  0  0  0  0  0  0  0  0
    5.2323    0.2912    3.6084 C   0  0  2  0  0  0  0  0  0  0  0  0
    5.8927    1.0135    4.8135 C   0  0  0  0  0  0  0  0  0  0  0  0
    7.1218    1.8143    4.3595 C   0  0  0  0  0  0  0  0  0  0  0  0
    6.3405    0.0357    5.9088 C   0  0  0  0  0  0  0  0  0  0  0  0
    4.6819    1.1893    2.5549 N   0  0  0  0  0  0  0  0  0  0  0  0
    4.6970    0.6927    1.2488 C   0  0  0  0  0  0  0  0  0  0  0  0
    3.9346    1.4280    0.1192 C   0  0  0  0  0  0  0  0  0  0  0  0
    2.4266    1.2087    0.2700 C   0  0  0  0  0  0  0  0  0  0  0  0
    1.6583    1.8100   -0.8985 C   0  0  0  0  0  0  0  0  0  0  0  0
    2.1681    1.3319   -2.1758 N   0  0  0  0  0  0  0  0  0  0  0  0
    1.2690    1.1988   -3.2304 C   0  0  0  0  0  0  0  0  0  0  0  0
    1.7468    0.6413   -4.4772 C   0  0  0  0  0  0  0  0  0  0  0  0
    2.0887    0.1361   -5.5139 C   0  0  0  0  0  0  0  0  0  0  0  0
    2.4710   -0.5194   -6.7924 C   0  0  0  0  0  0  0  0  0  0  0  0
    1.2950   -0.5179   -7.7030 N   0  0  0  0  0  0  0  0  0  0  0  0
    1.4342   -1.3600   -8.8931 C   0  0  0  0  0  0  0  0  0  0  0  0
    0.8543    0.8227   -8.1092 C   0  0  0  0  0  0  0  0  0  0  0  0
    3.7058    0.2101   -7.3663 C   0  0  0  0  0  0  0  0  0  0  0  0
    2.8915   -1.9656   -6.4282 C   0  0  0  0  0  0  0  0  0  0  0  0
    0.0821    1.4939   -3.1659 O   0  0  0  0  0  0  0  0  0  0  0  0
    3.6017    1.4925   -2.3871 C   0  0  0  0  0  0  0  0  0  0  0  0
    4.4052    0.8966   -1.2437 C   0  0  0  0  0  0  0  0  0  0  0  0
    5.2857   -0.3684    0.9990 O   0  0  0  0  0  0  0  0  0  0  0  0
    3.9619    2.3902    2.9788 C   0  0  0  0  0  0  0  0  0  0  0  0
    2.9400   -0.2703    4.3045 O   0  0  0  0  0  0  0  0  0  0  0  0
    3.6972   -4.3375    3.9293 C   0  0  0  0  0  0  0  0  0  0  0  0
    3.4493   -4.3260    2.4064 C   0  0  1  0  0  0  0  0  0  0  0  0
    2.2330   -3.4656    2.0145 C   0  0  0  0  0  0  0  0  0  0  0  0
    2.0193   -3.4218    0.5553 N   0  0  0  0  0  0  0  0  0  0  0  0
    3.2698   -3.0259   -0.1479 C   0  0  0  0  0  0  0  0  0  0  0  0
    4.4607   -3.8825    0.3244 C   0  0  0  0  0  0  0  0  0  0  0  0
    4.6367   -3.8423    1.7518 O   0  0  0  0  0  0  0  0  0  0  0  0
    4.6022   -3.6911    6.6384 O   0  0  0  0  0  0  0  0  0  0  0  0
    2.5398   -2.9524    8.3769 C   0  0  0  0  0  0  0  0  0  0  0  0
    1.5369   -4.0970    8.5404 C   0  0  0  0  0  0  0  0  0  0  0  0
    0.1936   -3.7424    7.8859 C   0  0  0  0  0  0  0  0  0  0  0  0
   -2.0585   -2.9064    6.4528 O   0  0  0  0  0  0  0  0  0  0  0  0
   -0.8942   -0.9978    0.6406 C   0  0  0  0  0  0  0  0  0  0  0  0
   -1.2365   -1.0010   -0.7047 C   0  0  0  0  0  0  0  0  0  0  0  0
   -0.5563   -1.8013   -1.6353 C   0  0  0  0  0  0  0  0  0  0  0  0
    0.5044   -2.6019   -1.1816 C   0  0  0  0  0  0  0  0  0  0  0  0
    0.9121   -2.6185    0.1566 C   0  0  0  0  0  0  0  0  0  0  0  0
    0.1782   -1.8179    1.0577 C   0  0  0  0  0  0  0  0  0  0  0  0
    4.1913    2.7752    0.1296 F   0  0  0  0  0  0  0  0  0  0  0  0
   -0.7975    4.2571   -1.1515 H   0  0  0  0  0  0  0  0  0  0  0  0
   -1.4260    2.6385   -1.3778 H   0  0  0  0  0  0  0  0  0  0  0  0
   -2.4829    4.0313   -1.6567 H   0  0  0  0  0  0  0  0  0  0  0  0
   -2.2791    4.6378    0.7676 H   0  0  0  0  0  0  0  0  0  0  0  0
    0.6182    3.5061    2.3116 H   0  0  0  0  0  0  0  0  0  0  0  0
    0.3347    4.5225    0.8866 H   0  0  0  0  0  0  0  0  0  0  0  0
   -0.6493    4.7491    2.3689 H   0  0  0  0  0  0  0  0  0  0  0  0
   -6.5420    3.9718    1.0249 H   0  0  0  0  0  0  0  0  0  0  0  0
   -7.0540    1.5339    0.8289 H   0  0  0  0  0  0  0  0  0  0  0  0
   -5.1696   -0.0408    0.5054 H   0  0  0  0  0  0  0  0  0  0  0  0
   -3.3648    1.1679   -2.1029 H   0  0  0  0  0  0  0  0  0  0  0  0
   -2.1392    0.1971   -2.9003 H   0  0  0  0  0  0  0  0  0  0  0  0
   -4.7837   -0.8894   -1.7703 H   0  0  0  0  0  0  0  0  0  0  0  0
   -4.4049   -0.6344   -3.4801 H   0  0  0  0  0  0  0  0  0  0  0  0
   -3.5448   -1.8736   -2.5528 H   0  0  0  0  0  0  0  0  0  0  0  0
   -0.6296    0.2215    3.1087 H   0  0  0  0  0  0  0  0  0  0  0  0
   -1.9687    1.3144    2.9149 H   0  0  0  0  0  0  0  0  0  0  0  0
   -4.6345   -1.0596    4.1734 H   0  0  0  0  0  0  0  0  0  0  0  0
   -4.3980    0.4600    3.3197 H   0  0  0  0  0  0  0  0  0  0  0  0
   -4.1966   -1.0947    2.4696 H   0  0  0  0  0  0  0  0  0  0  0  0
   -2.9924   -0.4322    5.9408 H   0  0  0  0  0  0  0  0  0  0  0  0
   -1.3730    0.1581    5.5151 H   0  0  0  0  0  0  0  0  0  0  0  0
   -2.7992    1.1309    5.1472 H   0  0  0  0  0  0  0  0  0  0  0  0
   -2.8819   -2.6704    4.3245 H   0  0  0  0  0  0  0  0  0  0  0  0
   -1.9389   -2.4794    2.8873 H   0  0  0  0  0  0  0  0  0  0  0  0
    0.7129   -4.0293    5.7971 H   0  0  0  0  0  0  0  0  0  0  0  0
    1.4246   -1.5919    5.5903 H   0  0  0  0  0  0  0  0  0  0  0  0
    2.4829   -2.6415    4.3873 H   0  0  0  0  0  0  0  0  0  0  0  0
    5.3921   -2.2772    3.9877 H   0  0  0  0  0  0  0  0  0  0  0  0
    6.0070   -0.3375    3.1495 H   0  0  0  0  0  0  0  0  0  0  0  0
    5.1753    1.7024    5.2741 H   0  0  0  0  0  0  0  0  0  0  0  0
    7.5710    2.3463    5.2051 H   0  0  0  0  0  0  0  0  0  0  0  0
    7.8870    1.1561    3.9329 H   0  0  0  0  0  0  0  0  0  0  0  0
    6.8679    2.5618    3.6024 H   0  0  0  0  0  0  0  0  0  0  0  0
    6.8271    0.5734    6.7302 H   0  0  0  0  0  0  0  0  0  0  0  0
    5.4899   -0.5007    6.3425 H   0  0  0  0  0  0  0  0  0  0  0  0
    7.0530   -0.7007    5.5201 H   0  0  0  0  0  0  0  0  0  0  0  0
    2.2233    0.1335    0.3216 H   0  0  0  0  0  0  0  0  0  0  0  0
    2.0416    1.6414    1.1969 H   0  0  0  0  0  0  0  0  0  0  0  0
    0.5989    1.5589   -0.7964 H   0  0  0  0  0  0  0  0  0  0  0  0
    1.7373    2.9044   -0.8968 H   0  0  0  0  0  0  0  0  0  0  0  0
    1.5668   -2.4141   -8.6309 H   0  0  0  0  0  0  0  0  0  0  0  0
    0.5167   -1.3274   -9.4939 H   0  0  0  0  0  0  0  0  0  0  0  0
    2.2643   -1.0474   -9.5346 H   0  0  0  0  0  0  0  0  0  0  0  0
    0.6711    1.4764   -7.2499 H   0  0  0  0  0  0  0  0  0  0  0  0
    1.5735    1.3146   -8.7742 H   0  0  0  0  0  0  0  0  0  0  0  0
   -0.1027    0.7582   -8.6411 H   0  0  0  0  0  0  0  0  0  0  0  0
    4.5539    0.1465   -6.6734 H   0  0  0  0  0  0  0  0  0  0  0  0
    4.0311   -0.2275   -8.3163 H   0  0  0  0  0  0  0  0  0  0  0  0
    3.5170    1.2768   -7.5286 H   0  0  0  0  0  0  0  0  0  0  0  0
    2.0345   -2.5534   -6.0774 H   0  0  0  0  0  0  0  0  0  0  0  0
    3.3424   -2.4895   -7.2784 H   0  0  0  0  0  0  0  0  0  0  0  0
    3.6342   -1.9703   -5.6201 H   0  0  0  0  0  0  0  0  0  0  0  0
    3.9187    1.0340   -3.3284 H   0  0  0  0  0  0  0  0  0  0  0  0
    3.7971    2.5688   -2.4782 H   0  0  0  0  0  0  0  0  0  0  0  0
    5.4647    1.1361   -1.3904 H   0  0  0  0  0  0  0  0  0  0  0  0
    4.3093   -0.1946   -1.2862 H   0  0  0  0  0  0  0  0  0  0  0  0
    3.1636    2.1177    3.6739 H   0  0  0  0  0  0  0  0  0  0  0  0
    4.6558    3.0691    3.4806 H   0  0  0  0  0  0  0  0  0  0  0  0
    3.5195    2.9433    2.1548 H   0  0  0  0  0  0  0  0  0  0  0  0
    4.7129   -4.7048    4.1266 H   0  0  0  0  0  0  0  0  0  0  0  0
    3.0051   -5.0605    4.3828 H   0  0  0  0  0  0  0  0  0  0  0  0
    3.2947   -5.3636    2.0814 H   0  0  0  0  0  0  0  0  0  0  0  0
    1.3439   -3.8609    2.5221 H   0  0  0  0  0  0  0  0  0  0  0  0
    2.4230   -2.4377    2.3358 H   0  0  0  0  0  0  0  0  0  0  0  0
    3.1738   -3.1395   -1.2327 H   0  0  0  0  0  0  0  0  0  0  0  0
    3.4816   -1.9754    0.0753 H   0  0  0  0  0  0  0  0  0  0  0  0
    4.3338   -4.9272    0.0143 H   0  0  0  0  0  0  0  0  0  0  0  0
    5.3837   -3.5113   -0.1309 H   0  0  0  0  0  0  0  0  0  0  0  0
    3.5252   -3.2530    8.7455 H   0  0  0  0  0  0  0  0  0  0  0  0
    2.2199   -2.0700    8.9438 H   0  0  0  0  0  0  0  0  0  0  0  0
    1.9342   -5.0016    8.0637 H   0  0  0  0  0  0  0  0  0  0  0  0
    1.3914   -4.3249    9.6015 H   0  0  0  0  0  0  0  0  0  0  0  0
   -0.3114   -2.9857    8.5021 H   0  0  0  0  0  0  0  0  0  0  0  0
   -0.4552   -4.6270    7.8875 H   0  0  0  0  0  0  0  0  0  0  0  0
   -0.8274   -1.8050   -2.6858 H   0  0  0  0  0  0  0  0  0  0  0  0
    1.0095   -3.2330   -1.9084 H   0  0  0  0  0  0  0  0  0  0  0  0
    0.4289   -1.7680    2.1094 H   0  0  0  0  0  0  0  0  0  0  0  0
  1  2  1  0
  2  3  1  0
  2  5  1  0
  3  4  1  0
  5  6  2  0
  5 10  1  0
  6  7  1  0
  7  8  2  0
  8  9  1  0
  9 10  2  0
 10 11  1  0
 11 12  1  0
 11 15  2  0
 12 13  1  0
 12 68  1  0
 13 14  1  0
 15 16  1  0
 15 67  1  0
 16 17  1  0
 17 18  1  0
 17 19  1  0
 17 20  1  0
 20 21  1  0
 21 22  1  0
 22 23  1  0
 22 66  2  0
 23 24  1  0
 23 65  1  0
 24 25  1  0
 25 26  1  0
 25 63  1  0
 26 27  1  0
 26 62  2  0
 27 28  1  0
 27 55  1  0
 28 29  1  0
 29 30  1  0
 29 54  2  0
 30 31  1  0
 30 34  1  0
 31 32  1  0
 31 33  1  0
 34 35  1  0
 34 53  1  0
 35 36  1  0
 35 52  2  0
 36 37  1  0
 36 51  1  0
 36 73  1  0
 37 38  1  0
 38 39  1  0
 39 40  1  0
 39 50  1  0
 40 41  1  0
 40 49  2  0
 42 43  1  0
 43 44  1  0
 43 47  1  0
 43 48  1  0
 44 45  1  0
 44 46  1  0
 50 51  1  0
 55 56  1  0
 56 57  1  0
 56 61  1  0
 57 58  1  0
 58 59  1  0
 58 71  1  0
 59 60  1  0
 60 61  1  0
 63 64  1  0
 64 65  1  0
 67 68  2  0
 67 72  1  0
 68 69  1  0
 69 70  2  0
 70 71  1  0
 71 72  2  0
 41 42  3  0
  1 74  1  0
  1 75  1  0
  1 76  1  0
  2 77  1  1
  4 78  1  0
  4 79  1  0
  4 80  1  0
  7 81  1  0
  8 82  1  0
  9 83  1  0
 13 84  1  0
 13 85  1  0
 14 86  1  0
 14 87  1  0
 14 88  1  0
 16 89  1  0
 16 90  1  0
 18 91  1  0
 18 92  1  0
 18 93  1  0
 19 94  1  0
 19 95  1  0
 19 96  1  0
 20 97  1  0
 20 98  1  0
 23 99  1  6
 24100  1  0
 27101  1  1
 28102  1  0
 30103  1  6
 31104  1  0
 32105  1  0
 32106  1  0
 32107  1  0
 33108  1  0
 33109  1  0
 33110  1  0
 37111  1  0
 37112  1  0
 38113  1  0
 38114  1  0
 45115  1  0
 45116  1  0
 45117  1  0
 46118  1  0
 46119  1  0
 46120  1  0
 47121  1  0
 47122  1  0
 47123  1  0
 48124  1  0
 48125  1  0
 48126  1  0
 50127  1  0
 50128  1  0
 51129  1  0
 51130  1  0
 53131  1  0
 53132  1  0
 53133  1  0
 55134  1  0
 55135  1  0
 56136  1  6
 57137  1  0
 57138  1  0
 59139  1  0
 59140  1  0
 60141  1  0
 60142  1  0
 63143  1  0
 63144  1  0
 64145  1  0
 64146  1  0
 65147  1  0
 65148  1  0
 69149  1  0
 70150  1  0
 72151  1  0
M  END
$$$$
