mol_bioactive_46
     RDKit          3D

151157  0  0  0  0  0  0  0  0999 V2000
   -1.4464   -5.4502   -0.3777 C   0  0  0  0  0  0  0  0  0  0  0  0
   -2.2577   -5.0731    0.8593 C   0  0  2  0  0  0  0  0  0  0  0  0
   -2.5405   -3.6716    0.8830 O   0  0  0  0  0  0  0  0  0  0  0  0
   -3.6979   -3.3207    0.1415 C   0  0  0  0  0  0  0  0  0  0  0  0
   -1.5757   -5.5518    2.1361 C   0  0  0  0  0  0  0  0  0  0  0  0
   -2.1090   -6.7143    2.6306 N   0  0  0  0  0  0  0  0  0  0  0  0
   -1.5509   -7.2658    3.7271 C   0  0  0  0  0  0  0  0  0  0  0  0
   -0.4564   -6.7337    4.3732 C   0  0  0  0  0  0  0  0  0  0  0  0
    0.0891   -5.5603    3.8665 C   0  0  0  0  0  0  0  0  0  0  0  0
   -0.4625   -4.9374    2.7356 C   0  0  0  0  0  0  0  0  0  0  0  0
    0.1826   -3.7069    2.2553 C   0  0  0  0  0  0  0  0  0  0  0  0
    1.3345   -3.7088    1.4803 N   0  0  0  0  0  0  0  0  0  0  0  0
    2.0624   -4.8890    1.0284 C   0  0  0  0  0  0  0  0  0  0  0  0
    3.2760   -5.1866    1.8956 C   0  0  0  0  0  0  0  0  0  0  0  0
   -0.1540   -2.3722    2.4961 C   0  0  0  0  0  0  0  0  0  0  0  0
   -1.3293   -1.8404    3.2917 C   0  0  0  0  0  0  0  0  0  0  0  0
   -1.0817   -1.4458    4.7787 C   0  0  0  0  0  0  0  0  0  0  0  0
   -2.4581   -1.1329    5.4072 C   0  0  0  0  0  0  0  0  0  0  0  0
   -0.4716   -2.6181    5.5694 C   0  0  0  0  0  0  0  0  0  0  0  0
   -0.1415   -0.2237    4.9416 C   0  0  0  0  0  0  0  0  0  0  0  0
   -0.7485    1.0335    4.5689 O   0  0  0  0  0  0  0  0  0  0  0  0
   -1.0570    1.8701    5.6129 C   0  0  0  0  0  0  0  0  0  0  0  0
   -1.4262    3.2716    5.1124 C   0  0  1  0  0  0  0  0  0  0  0  0
   -2.5525    3.2275    4.1610 N   0  0  0  0  0  0  0  0  0  0  0  0
   -2.8484    4.5401    3.6866 N   0  0  0  0  0  0  0  0  0  0  0  0
   -2.2653    5.1242    2.5495 C   0  0  0  0  0  0  0  0  0  0  0  0
   -1.3419    4.2510    1.6775 C   0  0  1  0  0  0  0  0  0  0  0  0
   -1.9686    4.0193    0.3868 N   0  0  0  0  0  0  0  0  0  0  0  0
   -2.7927    2.9315    0.1860 C   0  0  0  0  0  0  0  0  0  0  0  0
   -3.4034    2.8280   -1.2354 C   0  0  2  0  0  0  0  0  0  0  0  0
   -4.8943    3.2560   -1.2527 C   0  0  0  0  0  0  0  0  0  0  0  0
   -5.4267    3.3078   -2.6919 C   0  0  0  0  0  0  0  0  0  0  0  0
   -5.1070    4.6322   -0.6075 C   0  0  0  0  0  0  0  0  0  0  0  0
   -3.1415    1.4542   -1.7422 N   0  0  0  0  0  0  0  0  0  0  0  0
   -1.9587    1.2564   -2.4540 C   0  0  0  0  0  0  0  0  0  0  0  0
   -1.5666   -0.1615   -2.9319 C   0  0  0  0  0  0  0  0  0  0  0  0
   -0.9528   -0.9568   -1.7772 C   0  0  0  0  0  0  0  0  0  0  0  0
   -0.4561   -2.3160   -2.2443 C   0  0  0  0  0  0  0  0  0  0  0  0
    0.4317   -2.2018   -3.3940 N   0  0  0  0  0  0  0  0  0  0  0  0
    1.4818   -3.1136   -3.5104 C   0  0  0  0  0  0  0  0  0  0  0  0
    2.3179   -3.0430   -4.6912 C   0  0  0  0  0  0  0  0  0  0  0  0
    3.0120   -2.9457   -5.6692 C   0  0  0  0  0  0  0  0  0  0  0  0
    3.8560   -2.7778   -6.8814 C   0  0  0  0  0  0  0  0  0  0  0  0
    5.1795   -3.4089   -6.6432 N   0  0  0  0  0  0  0  0  0  0  0  0
    5.1216   -4.8642   -6.4695 C   0  0  0  0  0  0  0  0  0  0  0  0
    6.2042   -3.0824   -7.6363 C   0  0  0  0  0  0  0  0  0  0  0  0
    3.0937   -3.3557   -8.0926 C   0  0  0  0  0  0  0  0  0  0  0  0
    3.9967   -1.2497   -7.0962 C   0  0  0  0  0  0  0  0  0  0  0  0
    1.7506   -3.9631   -2.6694 O   0  0  0  0  0  0  0  0  0  0  0  0
   -0.0818   -1.4313   -4.5219 C   0  0  0  0  0  0  0  0  0  0  0  0
   -0.5558   -0.0557   -4.0812 C   0  0  0  0  0  0  0  0  0  0  0  0
   -1.2000    2.2098   -2.6735 O   0  0  0  0  0  0  0  0  0  0  0  0
   -4.0579    0.3892   -1.3394 C   0  0  0  0  0  0  0  0  0  0  0  0
   -3.0165    2.1187    1.0838 O   0  0  0  0  0  0  0  0  0  0  0  0
    0.0389    4.9220    1.5485 C   0  0  0  0  0  0  0  0  0  0  0  0
    1.1084    4.0795    0.8239 C   0  0  1  0  0  0  0  0  0  0  0  0
    1.0044    2.5789    1.1559 C   0  0  0  0  0  0  0  0  0  0  0  0
    1.9970    1.7622    0.4293 N   0  0  0  0  0  0  0  0  0  0  0  0
    1.9636    2.0569   -1.0303 C   0  0  0  0  0  0  0  0  0  0  0  0
    2.0139    3.5750   -1.2880 C   0  0  0  0  0  0  0  0  0  0  0  0
    0.9713    4.2855   -0.5942 O   0  0  0  0  0  0  0  0  0  0  0  0
   -2.4799    6.3000    2.2345 O   0  0  0  0  0  0  0  0  0  0  0  0
   -3.3966    5.4069    4.7310 C   0  0  0  0  0  0  0  0  0  0  0  0
   -2.3375    5.5599    5.8263 C   0  0  0  0  0  0  0  0  0  0  0  0
   -1.8272    4.1865    6.2924 C   0  0  0  0  0  0  0  0  0  0  0  0
   -0.9642    1.5684    6.7970 O   0  0  0  0  0  0  0  0  0  0  0  0
    0.7687   -1.5741    1.7454 C   0  0  0  0  0  0  0  0  0  0  0  0
    1.6875   -2.4184    1.1378 C   0  0  0  0  0  0  0  0  0  0  0  0
    2.7308   -1.9186    0.3427 C   0  0  0  0  0  0  0  0  0  0  0  0
    2.8185   -0.5300    0.1466 C   0  0  0  0  0  0  0  0  0  0  0  0
    1.8943    0.3650    0.6967 C   0  0  0  0  0  0  0  0  0  0  0  0
    0.8867   -0.1855    1.5171 C   0  0  0  0  0  0  0  0  0  0  0  0
   -2.6473   -0.8482   -3.4211 F   0  0  0  0  0  0  0  0  0  0  0  0
   -0.5196   -4.8747   -0.4408 H   0  0  0  0  0  0  0  0  0  0  0  0
   -1.1909   -6.5150   -0.3809 H   0  0  0  0  0  0  0  0  0  0  0  0
   -2.0082   -5.2328   -1.2916 H   0  0  0  0  0  0  0  0  0  0  0  0
   -3.2127   -5.6134    0.8042 H   0  0  0  0  0  0  0  0  0  0  0  0
   -3.8837   -2.2548    0.2907 H   0  0  0  0  0  0  0  0  0  0  0  0
   -3.5434   -3.4985   -0.9270 H   0  0  0  0  0  0  0  0  0  0  0  0
   -4.5744   -3.8735    0.4960 H   0  0  0  0  0  0  0  0  0  0  0  0
   -2.0225   -8.1788    4.0785 H   0  0  0  0  0  0  0  0  0  0  0  0
   -0.0363   -7.2149    5.2487 H   0  0  0  0  0  0  0  0  0  0  0  0
    0.9522   -5.1213    4.3619 H   0  0  0  0  0  0  0  0  0  0  0  0
    1.3821   -5.7451    1.0208 H   0  0  0  0  0  0  0  0  0  0  0  0
    2.3637   -4.7193   -0.0098 H   0  0  0  0  0  0  0  0  0  0  0  0
    2.9887   -5.3636    2.9364 H   0  0  0  0  0  0  0  0  0  0  0  0
    3.7919   -6.0794    1.5292 H   0  0  0  0  0  0  0  0  0  0  0  0
    3.9869   -4.3547    1.8848 H   0  0  0  0  0  0  0  0  0  0  0  0
   -1.7474   -0.9770    2.7566 H   0  0  0  0  0  0  0  0  0  0  0  0
   -2.1216   -2.6005    3.2664 H   0  0  0  0  0  0  0  0  0  0  0  0
   -2.3596   -0.8409    6.4586 H   0  0  0  0  0  0  0  0  0  0  0  0
   -2.9701   -0.3222    4.8766 H   0  0  0  0  0  0  0  0  0  0  0  0
   -3.1158   -2.0101    5.3733 H   0  0  0  0  0  0  0  0  0  0  0  0
   -0.3932   -2.3753    6.6359 H   0  0  0  0  0  0  0  0  0  0  0  0
   -1.0963   -3.5131    5.4897 H   0  0  0  0  0  0  0  0  0  0  0  0
    0.5377   -2.8550    5.2199 H   0  0  0  0  0  0  0  0  0  0  0  0
    0.2391   -0.1779    5.9693 H   0  0  0  0  0  0  0  0  0  0  0  0
    0.7562   -0.3404    4.3277 H   0  0  0  0  0  0  0  0  0  0  0  0
   -0.5292    3.6806    4.6299 H   0  0  0  0  0  0  0  0  0  0  0  0
   -2.4485    2.5437    3.4046 H   0  0  0  0  0  0  0  0  0  0  0  0
   -1.1951    3.2909    2.1636 H   0  0  0  0  0  0  0  0  0  0  0  0
   -1.7332    4.6355   -0.3832 H   0  0  0  0  0  0  0  0  0  0  0  0
   -2.8615    3.5370   -1.8736 H   0  0  0  0  0  0  0  0  0  0  0  0
   -5.4977    2.5382   -0.6845 H   0  0  0  0  0  0  0  0  0  0  0  0
   -6.4871    3.5807   -2.7010 H   0  0  0  0  0  0  0  0  0  0  0  0
   -4.8824    4.0496   -3.2867 H   0  0  0  0  0  0  0  0  0  0  0  0
   -5.3334    2.3425   -3.1966 H   0  0  0  0  0  0  0  0  0  0  0  0
   -4.8724    4.6114    0.4620 H   0  0  0  0  0  0  0  0  0  0  0  0
   -4.4817    5.3959   -1.0831 H   0  0  0  0  0  0  0  0  0  0  0  0
   -6.1531    4.9463   -0.7003 H   0  0  0  0  0  0  0  0  0  0  0  0
   -0.1140   -0.3924   -1.3592 H   0  0  0  0  0  0  0  0  0  0  0  0
   -1.6661   -1.1038   -0.9611 H   0  0  0  0  0  0  0  0  0  0  0  0
    0.0551   -2.8171   -1.4187 H   0  0  0  0  0  0  0  0  0  0  0  0
   -1.2975   -2.9529   -2.5435 H   0  0  0  0  0  0  0  0  0  0  0  0
    4.4142   -5.1581   -5.6867 H   0  0  0  0  0  0  0  0  0  0  0  0
    4.8534   -5.3892   -7.3937 H   0  0  0  0  0  0  0  0  0  0  0  0
    6.0979   -5.2438   -6.1425 H   0  0  0  0  0  0  0  0  0  0  0  0
    7.1498   -3.5826   -7.3931 H   0  0  0  0  0  0  0  0  0  0  0  0
    5.9208   -3.3810   -8.6506 H   0  0  0  0  0  0  0  0  0  0  0  0
    6.4393   -2.0150   -7.6318 H   0  0  0  0  0  0  0  0  0  0  0  0
    2.1291   -2.8473   -8.2259 H   0  0  0  0  0  0  0  0  0  0  0  0
    3.6548   -3.2290   -9.0255 H   0  0  0  0  0  0  0  0  0  0  0  0
    2.8660   -4.4208   -7.9729 H   0  0  0  0  0  0  0  0  0  0  0  0
    4.5675   -0.7824   -6.2829 H   0  0  0  0  0  0  0  0  0  0  0  0
    4.4906   -1.0087   -8.0446 H   0  0  0  0  0  0  0  0  0  0  0  0
    3.0140   -0.7592   -7.1173 H   0  0  0  0  0  0  0  0  0  0  0  0
    0.6746   -1.3106   -5.3016 H   0  0  0  0  0  0  0  0  0  0  0  0
   -0.9052   -2.0046   -4.9616 H   0  0  0  0  0  0  0  0  0  0  0  0
   -1.0129    0.4560   -4.9361 H   0  0  0  0  0  0  0  0  0  0  0  0
    0.3158    0.5372   -3.7747 H   0  0  0  0  0  0  0  0  0  0  0  0
   -4.2500    0.4455   -0.2636 H   0  0  0  0  0  0  0  0  0  0  0  0
   -5.0018    0.5077   -1.8794 H   0  0  0  0  0  0  0  0  0  0  0  0
   -3.6818   -0.6079   -1.5541 H   0  0  0  0  0  0  0  0  0  0  0  0
   -0.0630    5.8899    1.0419 H   0  0  0  0  0  0  0  0  0  0  0  0
    0.4047    5.1322    2.5624 H   0  0  0  0  0  0  0  0  0  0  0  0
    2.0957    4.4606    1.1188 H   0  0  0  0  0  0  0  0  0  0  0  0
    1.1256    2.4544    2.2393 H   0  0  0  0  0  0  0  0  0  0  0  0
    0.0173    2.2276    0.8410 H   0  0  0  0  0  0  0  0  0  0  0  0
    2.8087    1.5973   -1.5518 H   0  0  0  0  0  0  0  0  0  0  0  0
    1.0361    1.6604   -1.4545 H   0  0  0  0  0  0  0  0  0  0  0  0
    2.9841    3.9883   -0.9865 H   0  0  0  0  0  0  0  0  0  0  0  0
    1.8879    3.7719   -2.3576 H   0  0  0  0  0  0  0  0  0  0  0  0
   -3.6721    6.3856    4.3270 H   0  0  0  0  0  0  0  0  0  0  0  0
   -4.3028    4.9351    5.1280 H   0  0  0  0  0  0  0  0  0  0  0  0
   -1.4897    6.1367    5.4352 H   0  0  0  0  0  0  0  0  0  0  0  0
   -2.7475    6.1186    6.6745 H   0  0  0  0  0  0  0  0  0  0  0  0
   -2.6126    3.7038    6.8890 H   0  0  0  0  0  0  0  0  0  0  0  0
   -0.9704    4.3279    6.9627 H   0  0  0  0  0  0  0  0  0  0  0  0
    3.4529   -2.5787   -0.1285 H   0  0  0  0  0  0  0  0  0  0  0  0
    3.6441   -0.1559   -0.4547 H   0  0  0  0  0  0  0  0  0  0  0  0
    0.1312    0.4329    1.9841 H   0  0  0  0  0  0  0  0  0  0  0  0
  1  2  1  0
  2  3  1  0
  2  5  1  0
  3  4  1  0
  5  6  2  0
  5 10  1  0
  6  7  1  0
  7  8  2  0
  8  9  1  0
  9 10  2  0
 10 11  1  0
 11 12  1  0
 11 15  2  0
 12 13  1  0
 12 68  1  0
 13 14  1  0
 15 16  1  0
 15 67  1  0
 16 17  1  0
 17 18  1  0
 17 19  1  0
 17 20  1  0
 20 21  1  0
 21 22  1  0
 22 23  1  0
 22 66  2  0
 23 24  1  0
 23 65  1  0
 24 25  1  0
 25 26  1  0
 25 63  1  0
 26 27  1  0
 26 62  2  0
 27 28  1  0
 27 55  1  0
 28 29  1  0
 29 30  1  0
 29 54  2  0
 30 31  1  0
 30 34  1  0
 31 32  1  0
 31 33  1  0
 34 35  1  0
 34 53  1  0
 35 36  1  0
 35 52  2  0
 36 37  1  0
 36 51  1  0
 36 73  1  0
 37 38  1  0
 38 39  1  0
 39 40  1  0
 39 50  1  0
 40 41  1  0
 40 49  2  0
 42 43  1  0
 43 44  1  0
 43 47  1  0
 43 48  1  0
 44 45  1  0
 44 46  1  0
 50 51  1  0
 55 56  1  0
 56 57  1  0
 56 61  1  0
 57 58  1  0
 58 59  1  0
 58 71  1  0
 59 60  1  0
 60 61  1  0
 63 64  1  0
 64 65  1  0
 67 68  2  0
 67 72  1  0
 68 69  1  0
 69 70  2  0
 70 71  1  0
 71 72  2  0
 41 42  3  0
  1 74  1  0
  1 75  1  0
  1 76  1  0
  2 77  1  6
  4 78  1  0
  4 79  1  0
  4 80  1  0
  7 81  1  0
  8 82  1  0
  9 83  1  0
 13 84  1  0
 13 85  1  0
 14 86  1  0
 14 87  1  0
 14 88  1  0
 16 89  1  0
 16 90  1  0
 18 91  1  0
 18 92  1  0
 18 93  1  0
 19 94  1  0
 19 95  1  0
 19 96  1  0
 20 97  1  0
 20 98  1  0
 23 99  1  6
 24100  1  0
 27101  1  1
 28102  1  0
 30103  1  6
 31104  1  0
 32105  1  0
 32106  1  0
 32107  1  0
 33108  1  0
 33109  1  0
 33110  1  0
 37111  1  0
 37112  1  0
 38113  1  0
 38114  1  0
 45115  1  0
 45116  1  0
 45117  1  0
 46118  1  0
 46119  1  0
 46120  1  0
 47121  1  0
 47122  1  0
 47123  1  0
 48124  1  0
 48125  1  0
 48126  1  0
 50127  1  0
 50128  1  0
 51129  1  0
 51130  1  0
 53131  1  0
 53132  1  0
 53133  1  0
 55134  1  0
 55135  1  0
 56136  1  1
 57137  1  0
 57138  1  0
 59139  1  0
 59140  1  0
 60141  1  0
 60142  1  0
 63143  1  0
 63144  1  0
 64145  1  0
 64146  1  0
 65147  1  0
 65148  1  0
 69149  1  0
 70150  1  0
 72151  1  0
M  END
$$$$
