mol_bioactive_33
     RDKit          3D

151157  0  0  0  0  0  0  0  0999 V2000
    3.6167    1.4310   -2.6199 C   0  0  0  0  0  0  0  0  0  0  0  0
    2.8965    2.2002   -3.7249 C   0  0  2  0  0  0  0  0  0  0  0  0
    3.6866    1.9876   -4.9131 O   0  0  0  0  0  0  0  0  0  0  0  0
    2.9428    2.1588   -6.1087 C   0  0  0  0  0  0  0  0  0  0  0  0
    2.8019    3.6827   -3.3689 C   0  0  0  0  0  0  0  0  0  0  0  0
    3.9325    4.4227   -3.5798 N   0  0  0  0  0  0  0  0  0  0  0  0
    3.8988    5.7426   -3.3068 C   0  0  0  0  0  0  0  0  0  0  0  0
    2.7857    6.3930   -2.8186 C   0  0  0  0  0  0  0  0  0  0  0  0
    1.6409    5.6403   -2.5898 C   0  0  0  0  0  0  0  0  0  0  0  0
    1.6296    4.2627   -2.8516 C   0  0  0  0  0  0  0  0  0  0  0  0
    0.3952    3.5152   -2.5820 C   0  0  0  0  0  0  0  0  0  0  0  0
   -0.6591    3.4442   -3.4822 N   0  0  0  0  0  0  0  0  0  0  0  0
   -0.7192    4.1028   -4.7808 C   0  0  0  0  0  0  0  0  0  0  0  0
   -1.4557    5.4302   -4.7254 C   0  0  0  0  0  0  0  0  0  0  0  0
    0.0276    2.7918   -1.4463 C   0  0  0  0  0  0  0  0  0  0  0  0
    0.8212    2.5985   -0.1704 C   0  0  0  0  0  0  0  0  0  0  0  0
    0.4676    3.4933    1.0560 C   0  0  0  0  0  0  0  0  0  0  0  0
    1.5946    3.3022    2.0967 C   0  0  0  0  0  0  0  0  0  0  0  0
    0.4499    4.9846    0.6673 C   0  0  0  0  0  0  0  0  0  0  0  0
   -0.9019    3.1510    1.7000 C   0  0  0  0  0  0  0  0  0  0  0  0
   -0.9330    1.8692    2.3721 O   0  0  0  0  0  0  0  0  0  0  0  0
   -0.8862    1.9205    3.7428 C   0  0  0  0  0  0  0  0  0  0  0  0
   -1.1626    0.5552    4.3941 C   0  0  1  0  0  0  0  0  0  0  0  0
   -0.6491   -0.5630    3.5703 N   0  0  0  0  0  0  0  0  0  0  0  0
   -0.9534   -1.8288    4.1805 N   0  0  0  0  0  0  0  0  0  0  0  0
   -1.4498   -2.9535    3.4923 C   0  0  0  0  0  0  0  0  0  0  0  0
   -2.1224   -2.7067    2.1282 C   0  0  1  0  0  0  0  0  0  0  0  0
   -2.0802   -3.8842    1.2707 N   0  0  0  0  0  0  0  0  0  0  0  0
   -1.0360   -4.0938    0.3960 C   0  0  0  0  0  0  0  0  0  0  0  0
   -1.1880   -5.3292   -0.5349 C   0  0  2  0  0  0  0  0  0  0  0  0
   -0.5475   -6.6061    0.0686 C   0  0  0  0  0  0  0  0  0  0  0  0
   -0.8142   -7.8212   -0.8320 C   0  0  0  0  0  0  0  0  0  0  0  0
   -1.0822   -6.9248    1.4703 C   0  0  0  0  0  0  0  0  0  0  0  0
   -0.6711   -4.9331   -1.8795 N   0  0  0  0  0  0  0  0  0  0  0  0
   -1.5696   -4.2452   -2.7036 C   0  0  0  0  0  0  0  0  0  0  0  0
   -1.0539   -3.4171   -3.9083 C   0  0  0  0  0  0  0  0  0  0  0  0
   -0.3348   -2.1595   -3.4095 C   0  0  0  0  0  0  0  0  0  0  0  0
    0.0797   -1.2594   -4.5638 C   0  0  0  0  0  0  0  0  0  0  0  0
   -1.0361   -0.9622   -5.4497 N   0  0  0  0  0  0  0  0  0  0  0  0
   -1.0337    0.2673   -6.1016 C   0  0  0  0  0  0  0  0  0  0  0  0
   -2.1074    0.5750   -7.0207 C   0  0  0  0  0  0  0  0  0  0  0  0
   -2.9933    0.9089   -7.7635 C   0  0  0  0  0  0  0  0  0  0  0  0
   -4.0806    1.3726   -8.6566 C   0  0  0  0  0  0  0  0  0  0  0  0
   -3.7073    2.6003   -9.4121 N   0  0  0  0  0  0  0  0  0  0  0  0
   -2.6039    2.4120  -10.3585 C   0  0  0  0  0  0  0  0  0  0  0  0
   -3.4263    3.7659   -8.5684 C   0  0  0  0  0  0  0  0  0  0  0  0
   -4.4457    0.2218   -9.6228 C   0  0  0  0  0  0  0  0  0  0  0  0
   -5.3380    1.6353   -7.7950 C   0  0  0  0  0  0  0  0  0  0  0  0
   -0.1834    1.1336   -5.9309 O   0  0  0  0  0  0  0  0  0  0  0  0
   -1.7825   -2.1125   -5.9454 C   0  0  0  0  0  0  0  0  0  0  0  0
   -2.2316   -3.0175   -4.8097 C   0  0  0  0  0  0  0  0  0  0  0  0
   -2.7791   -4.2400   -2.4335 O   0  0  0  0  0  0  0  0  0  0  0  0
    0.7759   -4.9744   -2.1009 C   0  0  0  0  0  0  0  0  0  0  0  0
   -0.0671   -3.3351    0.3582 O   0  0  0  0  0  0  0  0  0  0  0  0
   -3.5704   -2.2237    2.3635 C   0  0  0  0  0  0  0  0  0  0  0  0
   -4.2980   -1.7052    1.1078 C   0  0  1  0  0  0  0  0  0  0  0  0
   -3.4534   -0.6500    0.3799 C   0  0  0  0  0  0  0  0  0  0  0  0
   -4.0612   -0.1831   -0.8827 N   0  0  0  0  0  0  0  0  0  0  0  0
   -4.4589   -1.3393   -1.7318 C   0  0  0  0  0  0  0  0  0  0  0  0
   -5.2872   -2.3577   -0.9276 C   0  0  0  0  0  0  0  0  0  0  0  0
   -4.5992   -2.8158    0.2498 O   0  0  0  0  0  0  0  0  0  0  0  0
   -1.4561   -4.0823    3.9959 O   0  0  0  0  0  0  0  0  0  0  0  0
   -0.3300   -2.0181    5.4941 C   0  0  0  0  0  0  0  0  0  0  0  0
   -0.7264   -0.8824    6.4346 C   0  0  0  0  0  0  0  0  0  0  0  0
   -0.5044    0.4829    5.7822 C   0  0  0  0  0  0  0  0  0  0  0  0
   -0.7320    2.9503    4.3905 O   0  0  0  0  0  0  0  0  0  0  0  0
   -1.2225    2.1668   -1.7535 C   0  0  0  0  0  0  0  0  0  0  0  0
   -1.6486    2.6108   -2.9978 C   0  0  0  0  0  0  0  0  0  0  0  0
   -2.8778    2.2038   -3.5400 C   0  0  0  0  0  0  0  0  0  0  0  0
   -3.6626    1.2926   -2.8113 C   0  0  0  0  0  0  0  0  0  0  0  0
   -3.2548    0.7646   -1.5807 C   0  0  0  0  0  0  0  0  0  0  0  0
   -2.0342    1.2436   -1.0639 C   0  0  0  0  0  0  0  0  0  0  0  0
   -0.1951   -4.1389   -4.6945 F   0  0  0  0  0  0  0  0  0  0  0  0
    3.0861    1.4795   -1.6677 H   0  0  0  0  0  0  0  0  0  0  0  0
    3.7188    0.3756   -2.8982 H   0  0  0  0  0  0  0  0  0  0  0  0
    4.6334    1.8122   -2.4663 H   0  0  0  0  0  0  0  0  0  0  0  0
    1.9078    1.7557   -3.8801 H   0  0  0  0  0  0  0  0  0  0  0  0
    2.2709    1.3084   -6.2439 H   0  0  0  0  0  0  0  0  0  0  0  0
    2.3811    3.0977   -6.1093 H   0  0  0  0  0  0  0  0  0  0  0  0
    3.6431    2.1712   -6.9487 H   0  0  0  0  0  0  0  0  0  0  0  0
    4.8239    6.2763   -3.5013 H   0  0  0  0  0  0  0  0  0  0  0  0
    2.8072    7.4570   -2.6171 H   0  0  0  0  0  0  0  0  0  0  0  0
    0.7524    6.1292   -2.1971 H   0  0  0  0  0  0  0  0  0  0  0  0
    0.2986    4.2394   -5.1562 H   0  0  0  0  0  0  0  0  0  0  0  0
   -1.2249    3.4297   -5.4792 H   0  0  0  0  0  0  0  0  0  0  0  0
   -0.9603    6.1367   -4.0502 H   0  0  0  0  0  0  0  0  0  0  0  0
   -1.4959    5.8822   -5.7214 H   0  0  0  0  0  0  0  0  0  0  0  0
   -2.4844    5.2990   -4.3704 H   0  0  0  0  0  0  0  0  0  0  0  0
    0.7601    1.5418    0.1219 H   0  0  0  0  0  0  0  0  0  0  0  0
    1.8766    2.7714   -0.4124 H   0  0  0  0  0  0  0  0  0  0  0  0
    1.4109    3.8993    2.9967 H   0  0  0  0  0  0  0  0  0  0  0  0
    1.6936    2.2533    2.3969 H   0  0  0  0  0  0  0  0  0  0  0  0
    2.5644    3.6185    1.6918 H   0  0  0  0  0  0  0  0  0  0  0  0
    0.2858    5.6191    1.5462 H   0  0  0  0  0  0  0  0  0  0  0  0
    1.4060    5.2878    0.2291 H   0  0  0  0  0  0  0  0  0  0  0  0
   -0.3498    5.2081   -0.0459 H   0  0  0  0  0  0  0  0  0  0  0  0
   -1.2049    3.9508    2.3880 H   0  0  0  0  0  0  0  0  0  0  0  0
   -1.6893    3.1323    0.9420 H   0  0  0  0  0  0  0  0  0  0  0  0
   -2.2534    0.4701    4.4864 H   0  0  0  0  0  0  0  0  0  0  0  0
   -0.9989   -0.4643    2.6195 H   0  0  0  0  0  0  0  0  0  0  0  0
   -1.5325   -1.9472    1.6212 H   0  0  0  0  0  0  0  0  0  0  0  0
   -2.8599   -4.5325    1.3003 H   0  0  0  0  0  0  0  0  0  0  0  0
   -2.2648   -5.5221   -0.6307 H   0  0  0  0  0  0  0  0  0  0  0  0
    0.5364   -6.4709    0.1630 H   0  0  0  0  0  0  0  0  0  0  0  0
   -1.8870   -8.0342   -0.8984 H   0  0  0  0  0  0  0  0  0  0  0  0
   -0.4407   -7.6703   -1.8495 H   0  0  0  0  0  0  0  0  0  0  0  0
   -0.3199   -8.7132   -0.4322 H   0  0  0  0  0  0  0  0  0  0  0  0
   -2.1750   -6.9882    1.4734 H   0  0  0  0  0  0  0  0  0  0  0  0
   -0.6897   -7.8826    1.8274 H   0  0  0  0  0  0  0  0  0  0  0  0
   -0.7757   -6.1659    2.1945 H   0  0  0  0  0  0  0  0  0  0  0  0
   -0.9953   -1.6035   -2.7309 H   0  0  0  0  0  0  0  0  0  0  0  0
    0.5612   -2.4121   -2.8360 H   0  0  0  0  0  0  0  0  0  0  0  0
    0.5001   -0.3329   -4.1592 H   0  0  0  0  0  0  0  0  0  0  0  0
    0.8619   -1.7350   -5.1671 H   0  0  0  0  0  0  0  0  0  0  0  0
   -1.6708    2.1181   -9.8654 H   0  0  0  0  0  0  0  0  0  0  0  0
   -2.8479    1.6702  -11.1252 H   0  0  0  0  0  0  0  0  0  0  0  0
   -2.4105    3.3398  -10.9114 H   0  0  0  0  0  0  0  0  0  0  0  0
   -2.5749    3.6087   -7.8967 H   0  0  0  0  0  0  0  0  0  0  0  0
   -3.2004    4.6420   -9.1885 H   0  0  0  0  0  0  0  0  0  0  0  0
   -4.2965    4.0552   -7.9711 H   0  0  0  0  0  0  0  0  0  0  0  0
   -4.8514   -0.6408   -9.0780 H   0  0  0  0  0  0  0  0  0  0  0  0
   -5.2050    0.5380  -10.3472 H   0  0  0  0  0  0  0  0  0  0  0  0
   -3.5767   -0.1523  -10.1758 H   0  0  0  0  0  0  0  0  0  0  0  0
   -5.1354    2.3055   -6.9507 H   0  0  0  0  0  0  0  0  0  0  0  0
   -6.1463    2.0719   -8.3934 H   0  0  0  0  0  0  0  0  0  0  0  0
   -5.7224    0.7049   -7.3562 H   0  0  0  0  0  0  0  0  0  0  0  0
   -2.6593   -1.7985   -6.5182 H   0  0  0  0  0  0  0  0  0  0  0  0
   -1.1253   -2.6541   -6.6362 H   0  0  0  0  0  0  0  0  0  0  0  0
   -2.7022   -3.9149   -5.2314 H   0  0  0  0  0  0  0  0  0  0  0  0
   -2.9998   -2.4925   -4.2293 H   0  0  0  0  0  0  0  0  0  0  0  0
    1.2751   -4.2572   -1.4459 H   0  0  0  0  0  0  0  0  0  0  0  0
    1.1570   -5.9763   -1.8926 H   0  0  0  0  0  0  0  0  0  0  0  0
    1.0491   -4.7481   -3.1281 H   0  0  0  0  0  0  0  0  0  0  0  0
   -4.1532   -3.0490    2.7945 H   0  0  0  0  0  0  0  0  0  0  0  0
   -3.5667   -1.4190    3.1093 H   0  0  0  0  0  0  0  0  0  0  0  0
   -5.2528   -1.2647    1.4236 H   0  0  0  0  0  0  0  0  0  0  0  0
   -3.3035    0.1896    1.0701 H   0  0  0  0  0  0  0  0  0  0  0  0
   -2.4901   -1.0952    0.1150 H   0  0  0  0  0  0  0  0  0  0  0  0
   -5.0558   -1.0236   -2.5920 H   0  0  0  0  0  0  0  0  0  0  0  0
   -3.5501   -1.8275   -2.0945 H   0  0  0  0  0  0  0  0  0  0  0  0
   -6.2505   -1.9279   -0.6278 H   0  0  0  0  0  0  0  0  0  0  0  0
   -5.4937   -3.2354   -1.5480 H   0  0  0  0  0  0  0  0  0  0  0  0
   -0.6257   -2.9766    5.9330 H   0  0  0  0  0  0  0  0  0  0  0  0
    0.7561   -2.0436    5.3471 H   0  0  0  0  0  0  0  0  0  0  0  0
   -1.7894   -0.9823    6.6907 H   0  0  0  0  0  0  0  0  0  0  0  0
   -0.1606   -0.9512    7.3701 H   0  0  0  0  0  0  0  0  0  0  0  0
    0.5736    0.6779    5.6984 H   0  0  0  0  0  0  0  0  0  0  0  0
   -0.9120    1.2639    6.4358 H   0  0  0  0  0  0  0  0  0  0  0  0
   -3.2243    2.5716   -4.5004 H   0  0  0  0  0  0  0  0  0  0  0  0
   -4.6238    1.0111   -3.2335 H   0  0  0  0  0  0  0  0  0  0  0  0
   -1.6443    0.9028   -0.1151 H   0  0  0  0  0  0  0  0  0  0  0  0
  1  2  1  0
  2  3  1  0
  2  5  1  0
  3  4  1  0
  5  6  2  0
  5 10  1  0
  6  7  1  0
  7  8  2  0
  8  9  1  0
  9 10  2  0
 10 11  1  0
 11 12  1  0
 11 15  2  0
 12 13  1  0
 12 68  1  0
 13 14  1  0
 15 16  1  0
 15 67  1  0
 16 17  1  0
 17 18  1  0
 17 19  1  0
 17 20  1  0
 20 21  1  0
 21 22  1  0
 22 23  1  0
 22 66  2  0
 23 24  1  0
 23 65  1  0
 24 25  1  0
 25 26  1  0
 25 63  1  0
 26 27  1  0
 26 62  2  0
 27 28  1  0
 27 55  1  0
 28 29  1  0
 29 30  1  0
 29 54  2  0
 30 31  1  0
 30 34  1  0
 31 32  1  0
 31 33  1  0
 34 35  1  0
 34 53  1  0
 35 36  1  0
 35 52  2  0
 36 37  1  0
 36 51  1  0
 36 73  1  0
 37 38  1  0
 38 39  1  0
 39 40  1  0
 39 50  1  0
 40 41  1  0
 40 49  2  0
 42 43  1  0
 43 44  1  0
 43 47  1  0
 43 48  1  0
 44 45  1  0
 44 46  1  0
 50 51  1  0
 55 56  1  0
 56 57  1  0
 56 61  1  0
 57 58  1  0
 58 59  1  0
 58 71  1  0
 59 60  1  0
 60 61  1  0
 63 64  1  0
 64 65  1  0
 67 68  2  0
 67 72  1  0
 68 69  1  0
 69 70  2  0
 70 71  1  0
 71 72  2  0
 41 42  3  0
  1 74  1  0
  1 75  1  0
  1 76  1  0
  2 77  1  6
  4 78  1  0
  4 79  1  0
  4 80  1  0
  7 81  1  0
  8 82  1  0
  9 83  1  0
 13 84  1  0
 13 85  1  0
 14 86  1  0
 14 87  1  0
 14 88  1  0
 16 89  1  0
 16 90  1  0
 18 91  1  0
 18 92  1  0
 18 93  1  0
 19 94  1  0
 19 95  1  0
 19 96  1  0
 20 97  1  0
 20 98  1  0
 23 99  1  1
 24100  1  0
 27101  1  6
 28102  1  0
 30103  1  6
 31104  1  0
 32105  1  0
 32106  1  0
 32107  1  0
 33108  1  0
 33109  1  0
 33110  1  0
 37111  1  0
 37112  1  0
 38113  1  0
 38114  1  0
 45115  1  0
 45116  1  0
 45117  1  0
 46118  1  0
 46119  1  0
 46120  1  0
 47121  1  0
 47122  1  0
 47123  1  0
 48124  1  0
 48125  1  0
 48126  1  0
 50127  1  0
 50128  1  0
 51129  1  0
 51130  1  0
 53131  1  0
 53132  1  0
 53133  1  0
 55134  1  0
 55135  1  0
 56136  1  1
 57137  1  0
 57138  1  0
 59139  1  0
 59140  1  0
 60141  1  0
 60142  1  0
 63143  1  0
 63144  1  0
 64145  1  0
 64146  1  0
 65147  1  0
 65148  1  0
 69149  1  0
 70150  1  0
 72151  1  0
M  END
$$$$
