mol_bioactive_23
     RDKit          3D

151157  0  0  0  0  0  0  0  0999 V2000
    3.0972   -4.3109    7.7552 C   0  0  0  0  0  0  0  0  0  0  0  0
    1.7996   -3.5683    7.4159 C   0  0  2  0  0  0  0  0  0  0  0  0
    1.0084   -3.3770    8.6012 O   0  0  0  0  0  0  0  0  0  0  0  0
    1.5370   -2.4040    9.4903 C   0  0  0  0  0  0  0  0  0  0  0  0
    0.9948   -4.3807    6.4076 C   0  0  0  0  0  0  0  0  0  0  0  0
    0.7189   -5.6697    6.7793 N   0  0  0  0  0  0  0  0  0  0  0  0
    0.0144   -6.4466    5.9325 C   0  0  0  0  0  0  0  0  0  0  0  0
   -0.4329   -6.0206    4.6998 C   0  0  0  0  0  0  0  0  0  0  0  0
   -0.1440   -4.7163    4.3183 C   0  0  0  0  0  0  0  0  0  0  0  0
    0.5762   -3.8622    5.1695 C   0  0  0  0  0  0  0  0  0  0  0  0
    0.8529   -2.5027    4.6746 C   0  0  0  0  0  0  0  0  0  0  0  0
    2.0707   -2.1167    4.1229 N   0  0  0  0  0  0  0  0  0  0  0  0
    3.2642   -2.9461    4.0011 C   0  0  0  0  0  0  0  0  0  0  0  0
    4.4182   -2.4720    4.8727 C   0  0  0  0  0  0  0  0  0  0  0  0
   -0.0482   -1.4517    4.4721 C   0  0  0  0  0  0  0  0  0  0  0  0
   -1.5346   -1.4196    4.7790 C   0  0  0  0  0  0  0  0  0  0  0  0
   -1.9879   -0.7962    6.1308 C   0  0  0  0  0  0  0  0  0  0  0  0
   -3.4933   -1.1033    6.2970 C   0  0  0  0  0  0  0  0  0  0  0  0
   -1.2485   -1.4584    7.3054 C   0  0  0  0  0  0  0  0  0  0  0  0
   -1.7457    0.7345    6.2143 C   0  0  0  0  0  0  0  0  0  0  0  0
   -2.6458    1.5222    5.3974 O   0  0  0  0  0  0  0  0  0  0  0  0
   -3.6443    2.1685    6.0829 C   0  0  0  0  0  0  0  0  0  0  0  0
   -4.4196    3.1630    5.2015 C   0  0  1  0  0  0  0  0  0  0  0  0
   -4.5522    2.6785    3.8074 N   0  0  0  0  0  0  0  0  0  0  0  0
   -5.2707    3.6278    2.9978 N   0  0  0  0  0  0  0  0  0  0  0  0
   -4.9312    3.9542    1.6681 C   0  0  0  0  0  0  0  0  0  0  0  0
   -3.4756    3.6966    1.2303 C   0  0  1  0  0  0  0  0  0  0  0  0
   -3.3450    3.5973   -0.2191 N   0  0  0  0  0  0  0  0  0  0  0  0
   -3.4361    2.3876   -0.8718 C   0  0  0  0  0  0  0  0  0  0  0  0
   -3.1556    2.4391   -2.4008 C   0  0  2  0  0  0  0  0  0  0  0  0
   -4.4480    2.6469   -3.2334 C   0  0  0  0  0  0  0  0  0  0  0  0
   -4.1119    2.8129   -4.7227 C   0  0  0  0  0  0  0  0  0  0  0  0
   -5.2482    3.8758   -2.7822 C   0  0  0  0  0  0  0  0  0  0  0  0
   -2.3652    1.2207   -2.7514 N   0  0  0  0  0  0  0  0  0  0  0  0
   -0.9821    1.3057   -2.5554 C   0  0  0  0  0  0  0  0  0  0  0  0
   -0.1177    0.0189   -2.4748 C   0  0  0  0  0  0  0  0  0  0  0  0
    1.3723    0.3909   -2.5420 C   0  0  0  0  0  0  0  0  0  0  0  0
    2.2662   -0.8183   -2.3189 C   0  0  0  0  0  0  0  0  0  0  0  0
    1.9057   -1.5261   -1.0961 N   0  0  0  0  0  0  0  0  0  0  0  0
    2.8394   -2.1722   -0.2902 C   0  0  0  0  0  0  0  0  0  0  0  0
    4.2153   -1.7249   -0.3375 C   0  0  0  0  0  0  0  0  0  0  0  0
    5.3460   -1.3147   -0.3076 C   0  0  0  0  0  0  0  0  0  0  0  0
    6.7212   -0.7580   -0.2135 C   0  0  0  0  0  0  0  0  0  0  0  0
    7.7056   -1.8276   -0.5210 N   0  0  0  0  0  0  0  0  0  0  0  0
    7.7206   -2.9237    0.4541 C   0  0  0  0  0  0  0  0  0  0  0  0
    9.0759   -1.3564   -0.7331 C   0  0  0  0  0  0  0  0  0  0  0  0
    6.8900   -0.1414    1.1929 C   0  0  0  0  0  0  0  0  0  0  0  0
    6.7969    0.3881   -1.2507 C   0  0  0  0  0  0  0  0  0  0  0  0
    2.5625   -3.0690    0.4989 O   0  0  0  0  0  0  0  0  0  0  0  0
    0.5102   -1.9217   -0.9843 C   0  0  0  0  0  0  0  0  0  0  0  0
   -0.4165   -0.7286   -1.1696 C   0  0  0  0  0  0  0  0  0  0  0  0
   -0.4459    2.4080   -2.3811 O   0  0  0  0  0  0  0  0  0  0  0  0
   -3.0882   -0.0355   -2.9526 C   0  0  0  0  0  0  0  0  0  0  0  0
   -3.7112    1.3492   -0.2707 O   0  0  0  0  0  0  0  0  0  0  0  0
   -2.5823    4.8195    1.8006 C   0  0  0  0  0  0  0  0  0  0  0  0
   -1.0687    4.5921    1.6434 C   0  0  1  0  0  0  0  0  0  0  0  0
   -0.6565    3.2311    2.2241 C   0  0  0  0  0  0  0  0  0  0  0  0
    0.7713    2.9209    2.0108 N   0  0  0  0  0  0  0  0  0  0  0  0
    1.1452    3.1114    0.5841 C   0  0  0  0  0  0  0  0  0  0  0  0
    0.6908    4.4940    0.0820 C   0  0  0  0  0  0  0  0  0  0  0  0
   -0.7208    4.7006    0.2552 O   0  0  0  0  0  0  0  0  0  0  0  0
   -5.7210    4.5289    0.9111 O   0  0  0  0  0  0  0  0  0  0  0  0
   -6.6411    3.8881    3.4535 C   0  0  0  0  0  0  0  0  0  0  0  0
   -6.6379    4.3450    4.9084 C   0  0  0  0  0  0  0  0  0  0  0  0
   -5.8223    3.3954    5.7844 C   0  0  0  0  0  0  0  0  0  0  0  0
   -3.8515    2.0393    7.2844 O   0  0  0  0  0  0  0  0  0  0  0  0
    0.6644   -0.4272    3.7736 C   0  0  0  0  0  0  0  0  0  0  0  0
    1.9692   -0.8523    3.5711 C   0  0  0  0  0  0  0  0  0  0  0  0
    2.8970   -0.0534    2.8834 C   0  0  0  0  0  0  0  0  0  0  0  0
    2.4804    1.1962    2.3942 C   0  0  0  0  0  0  0  0  0  0  0  0
    1.1680    1.6579    2.5353 C   0  0  0  0  0  0  0  0  0  0  0  0
    0.2818    0.8239    3.2464 C   0  0  0  0  0  0  0  0  0  0  0  0
   -0.3537   -0.8224   -3.5295 F   0  0  0  0  0  0  0  0  0  0  0  0
    2.9007   -5.1883    8.3831 H   0  0  0  0  0  0  0  0  0  0  0  0
    3.6241   -4.6418    6.8531 H   0  0  0  0  0  0  0  0  0  0  0  0
    3.7772   -3.6661    8.3220 H   0  0  0  0  0  0  0  0  0  0  0  0
    2.0439   -2.5864    7.0007 H   0  0  0  0  0  0  0  0  0  0  0  0
    0.8146   -2.2510   10.2975 H   0  0  0  0  0  0  0  0  0  0  0  0
    2.4745   -2.7480    9.9356 H   0  0  0  0  0  0  0  0  0  0  0  0
    1.6904   -1.4498    8.9768 H   0  0  0  0  0  0  0  0  0  0  0  0
   -0.1818   -7.4548    6.2845 H   0  0  0  0  0  0  0  0  0  0  0  0
   -0.9898   -6.6852    4.0494 H   0  0  0  0  0  0  0  0  0  0  0  0
   -0.4759   -4.3611    3.3447 H   0  0  0  0  0  0  0  0  0  0  0  0
    3.0095   -3.9780    4.2546 H   0  0  0  0  0  0  0  0  0  0  0  0
    3.5605   -2.9424    2.9474 H   0  0  0  0  0  0  0  0  0  0  0  0
    4.1164   -2.3521    5.9163 H   0  0  0  0  0  0  0  0  0  0  0  0
    5.2406   -3.1922    4.8329 H   0  0  0  0  0  0  0  0  0  0  0  0
    4.8089   -1.5072    4.5377 H   0  0  0  0  0  0  0  0  0  0  0  0
   -2.0463   -0.8986    3.9582 H   0  0  0  0  0  0  0  0  0  0  0  0
   -1.9075   -2.4513    4.7254 H   0  0  0  0  0  0  0  0  0  0  0  0
   -3.8829   -0.6868    7.2321 H   0  0  0  0  0  0  0  0  0  0  0  0
   -4.0818   -0.6929    5.4693 H   0  0  0  0  0  0  0  0  0  0  0  0
   -3.6742   -2.1843    6.3224 H   0  0  0  0  0  0  0  0  0  0  0  0
   -1.6425   -1.1100    8.2676 H   0  0  0  0  0  0  0  0  0  0  0  0
   -1.3643   -2.5469    7.2825 H   0  0  0  0  0  0  0  0  0  0  0  0
   -0.1822   -1.2160    7.2868 H   0  0  0  0  0  0  0  0  0  0  0  0
   -1.7901    1.0652    7.2594 H   0  0  0  0  0  0  0  0  0  0  0  0
   -0.7293    0.9825    5.8947 H   0  0  0  0  0  0  0  0  0  0  0  0
   -3.8462    4.0990    5.2099 H   0  0  0  0  0  0  0  0  0  0  0  0
   -3.6241    2.4548    3.4524 H   0  0  0  0  0  0  0  0  0  0  0  0
   -3.1963    2.7227    1.6273 H   0  0  0  0  0  0  0  0  0  0  0  0
   -3.0979    4.4343   -0.7360 H   0  0  0  0  0  0  0  0  0  0  0  0
   -2.5174    3.3152   -2.5751 H   0  0  0  0  0  0  0  0  0  0  0  0
   -5.1087    1.7798   -3.1177 H   0  0  0  0  0  0  0  0  0  0  0  0
   -3.4894    3.6992   -4.8896 H   0  0  0  0  0  0  0  0  0  0  0  0
   -3.5752    1.9461   -5.1185 H   0  0  0  0  0  0  0  0  0  0  0  0
   -5.0266    2.9288   -5.3143 H   0  0  0  0  0  0  0  0  0  0  0  0
   -5.6596    3.7322   -1.7787 H   0  0  0  0  0  0  0  0  0  0  0  0
   -4.6281    4.7783   -2.7786 H   0  0  0  0  0  0  0  0  0  0  0  0
   -6.0975    4.0542   -3.4505 H   0  0  0  0  0  0  0  0  0  0  0  0
    1.6027    0.8276   -3.5211 H   0  0  0  0  0  0  0  0  0  0  0  0
    1.6166    1.1458   -1.7858 H   0  0  0  0  0  0  0  0  0  0  0  0
    2.1665   -1.5305   -3.1470 H   0  0  0  0  0  0  0  0  0  0  0  0
    3.3111   -0.4973   -2.3015 H   0  0  0  0  0  0  0  0  0  0  0  0
    8.1235   -2.6139    1.4252 H   0  0  0  0  0  0  0  0  0  0  0  0
    6.7256   -3.3515    0.6113 H   0  0  0  0  0  0  0  0  0  0  0  0
    8.3433   -3.7473    0.0847 H   0  0  0  0  0  0  0  0  0  0  0  0
    9.4827   -0.8378    0.1400 H   0  0  0  0  0  0  0  0  0  0  0  0
    9.7419   -2.1976   -0.9614 H   0  0  0  0  0  0  0  0  0  0  0  0
    9.1441   -0.6939   -1.6014 H   0  0  0  0  0  0  0  0  0  0  0  0
    6.7228   -0.8750    1.9896 H   0  0  0  0  0  0  0  0  0  0  0  0
    7.8850    0.2936    1.3333 H   0  0  0  0  0  0  0  0  0  0  0  0
    6.1609    0.6625    1.3568 H   0  0  0  0  0  0  0  0  0  0  0  0
    7.7137    0.9793   -1.1446 H   0  0  0  0  0  0  0  0  0  0  0  0
    6.7544    0.0028   -2.2778 H   0  0  0  0  0  0  0  0  0  0  0  0
    5.9559    1.0843   -1.1373 H   0  0  0  0  0  0  0  0  0  0  0  0
    0.3195   -2.6880   -1.7442 H   0  0  0  0  0  0  0  0  0  0  0  0
    0.3183   -2.3748   -0.0063 H   0  0  0  0  0  0  0  0  0  0  0  0
   -0.3034   -0.0434   -0.3201 H   0  0  0  0  0  0  0  0  0  0  0  0
   -1.4469   -1.0934   -1.1454 H   0  0  0  0  0  0  0  0  0  0  0  0
   -3.5747   -0.3395   -2.0229 H   0  0  0  0  0  0  0  0  0  0  0  0
   -3.8443    0.0893   -3.7314 H   0  0  0  0  0  0  0  0  0  0  0  0
   -2.4393   -0.8450   -3.2791 H   0  0  0  0  0  0  0  0  0  0  0  0
   -2.8495    5.7646    1.3095 H   0  0  0  0  0  0  0  0  0  0  0  0
   -2.7974    4.9516    2.8685 H   0  0  0  0  0  0  0  0  0  0  0  0
   -0.5451    5.3952    2.1792 H   0  0  0  0  0  0  0  0  0  0  0  0
   -0.8917    3.2450    3.2953 H   0  0  0  0  0  0  0  0  0  0  0  0
   -1.2277    2.4426    1.7251 H   0  0  0  0  0  0  0  0  0  0  0  0
    2.2263    3.0385    0.4333 H   0  0  0  0  0  0  0  0  0  0  0  0
    0.6534    2.3346   -0.0104 H   0  0  0  0  0  0  0  0  0  0  0  0
    1.2313    5.2940    0.6026 H   0  0  0  0  0  0  0  0  0  0  0  0
    0.9091    4.5874   -0.9868 H   0  0  0  0  0  0  0  0  0  0  0  0
   -7.1173    4.6544    2.8329 H   0  0  0  0  0  0  0  0  0  0  0  0
   -7.2138    2.9612    3.3319 H   0  0  0  0  0  0  0  0  0  0  0  0
   -6.1976    5.3495    4.9706 H   0  0  0  0  0  0  0  0  0  0  0  0
   -7.6643    4.4183    5.2835 H   0  0  0  0  0  0  0  0  0  0  0  0
   -6.3550    2.4392    5.8812 H   0  0  0  0  0  0  0  0  0  0  0  0
   -5.7483    3.8149    6.7953 H   0  0  0  0  0  0  0  0  0  0  0  0
    3.9163   -0.3836    2.7150 H   0  0  0  0  0  0  0  0  0  0  0  0
    3.2252    1.8126    1.8980 H   0  0  0  0  0  0  0  0  0  0  0  0
   -0.7533    1.0957    3.4002 H   0  0  0  0  0  0  0  0  0  0  0  0
  1  2  1  0
  2  3  1  0
  2  5  1  0
  3  4  1  0
  5  6  2  0
  5 10  1  0
  6  7  1  0
  7  8  2  0
  8  9  1  0
  9 10  2  0
 10 11  1  0
 11 12  1  0
 11 15  2  0
 12 13  1  0
 12 68  1  0
 13 14  1  0
 15 16  1  0
 15 67  1  0
 16 17  1  0
 17 18  1  0
 17 19  1  0
 17 20  1  0
 20 21  1  0
 21 22  1  0
 22 23  1  0
 22 66  2  0
 23 24  1  0
 23 65  1  0
 24 25  1  0
 25 26  1  0
 25 63  1  0
 26 27  1  0
 26 62  2  0
 27 28  1  0
 27 55  1  0
 28 29  1  0
 29 30  1  0
 29 54  2  0
 30 31  1  0
 30 34  1  0
 31 32  1  0
 31 33  1  0
 34 35  1  0
 34 53  1  0
 35 36  1  0
 35 52  2  0
 36 37  1  0
 36 51  1  0
 36 73  1  0
 37 38  1  0
 38 39  1  0
 39 40  1  0
 39 50  1  0
 40 41  1  0
 40 49  2  0
 42 43  1  0
 43 44  1  0
 43 47  1  0
 43 48  1  0
 44 45  1  0
 44 46  1  0
 50 51  1  0
 55 56  1  0
 56 57  1  0
 56 61  1  0
 57 58  1  0
 58 59  1  0
 58 71  1  0
 59 60  1  0
 60 61  1  0
 63 64  1  0
 64 65  1  0
 67 68  2  0
 67 72  1  0
 68 69  1  0
 69 70  2  0
 70 71  1  0
 71 72  2  0
 41 42  3  0
  1 74  1  0
  1 75  1  0
  1 76  1  0
  2 77  1  6
  4 78  1  0
  4 79  1  0
  4 80  1  0
  7 81  1  0
  8 82  1  0
  9 83  1  0
 13 84  1  0
 13 85  1  0
 14 86  1  0
 14 87  1  0
 14 88  1  0
 16 89  1  0
 16 90  1  0
 18 91  1  0
 18 92  1  0
 18 93  1  0
 19 94  1  0
 19 95  1  0
 19 96  1  0
 20 97  1  0
 20 98  1  0
 23 99  1  6
 24100  1  0
 27101  1  1
 28102  1  0
 30103  1  1
 31104  1  0
 32105  1  0
 32106  1  0
 32107  1  0
 33108  1  0
 33109  1  0
 33110  1  0
 37111  1  0
 37112  1  0
 38113  1  0
 38114  1  0
 45115  1  0
 45116  1  0
 45117  1  0
 46118  1  0
 46119  1  0
 46120  1  0
 47121  1  0
 47122  1  0
 47123  1  0
 48124  1  0
 48125  1  0
 48126  1  0
 50127  1  0
 50128  1  0
 51129  1  0
 51130  1  0
 53131  1  0
 53132  1  0
 53133  1  0
 55134  1  0
 55135  1  0
 56136  1  1
 57137  1  0
 57138  1  0
 59139  1  0
 59140  1  0
 60141  1  0
 60142  1  0
 63143  1  0
 63144  1  0
 64145  1  0
 64146  1  0
 65147  1  0
 65148  1  0
 69149  1  0
 70150  1  0
 72151  1  0
M  END
$$$$
