mol_bioactive_19
     RDKit          3D

151157  0  0  0  0  0  0  0  0999 V2000
    1.0202    7.4552   -3.7682 C   0  0  0  0  0  0  0  0  0  0  0  0
    0.2559    6.2397   -4.3013 C   0  0  2  0  0  0  0  0  0  0  0  0
   -0.0812    5.4083   -3.1868 O   0  0  0  0  0  0  0  0  0  0  0  0
   -1.3304    5.7227   -2.5951 C   0  0  0  0  0  0  0  0  0  0  0  0
    1.0544    5.5383   -5.4055 C   0  0  0  0  0  0  0  0  0  0  0  0
    1.3406    6.3655   -6.4623 N   0  0  0  0  0  0  0  0  0  0  0  0
    2.0202    5.8654   -7.5161 C   0  0  0  0  0  0  0  0  0  0  0  0
    2.4398    4.5568   -7.6021 C   0  0  0  0  0  0  0  0  0  0  0  0
    2.1412    3.7121   -6.5424 C   0  0  0  0  0  0  0  0  0  0  0  0
    1.4366    4.1820   -5.4202 C   0  0  0  0  0  0  0  0  0  0  0  0
    1.1800    3.2029   -4.3560 C   0  0  0  0  0  0  0  0  0  0  0  0
    1.9193    3.1424   -3.1807 N   0  0  0  0  0  0  0  0  0  0  0  0
    3.0295    4.0165   -2.8275 C   0  0  0  0  0  0  0  0  0  0  0  0
    4.3722    3.4221   -3.2182 C   0  0  0  0  0  0  0  0  0  0  0  0
    0.3008    2.1192   -4.3460 C   0  0  0  0  0  0  0  0  0  0  0  0
   -0.6520    1.6559   -5.4224 C   0  0  0  0  0  0  0  0  0  0  0  0
   -2.1089    2.2044   -5.3851 C   0  0  0  0  0  0  0  0  0  0  0  0
   -2.1337    3.6527   -5.9066 C   0  0  0  0  0  0  0  0  0  0  0  0
   -2.7345    2.1692   -3.9793 C   0  0  0  0  0  0  0  0  0  0  0  0
   -2.9756    1.3493   -6.3475 C   0  0  0  0  0  0  0  0  0  0  0  0
   -3.2814    0.0580   -5.7881 O   0  0  0  0  0  0  0  0  0  0  0  0
   -4.0776   -0.7040   -6.6007 C   0  0  0  0  0  0  0  0  0  0  0  0
   -4.5918   -1.9680   -5.8868 C   0  0  1  0  0  0  0  0  0  0  0  0
   -5.0354   -1.6309   -4.5054 N   0  0  0  0  0  0  0  0  0  0  0  0
   -5.6805   -2.7429   -3.8333 N   0  0  0  0  0  0  0  0  0  0  0  0
   -5.8362   -2.7322   -2.4261 C   0  0  0  0  0  0  0  0  0  0  0  0
   -4.6547   -2.2088   -1.5787 C   0  0  1  0  0  0  0  0  0  0  0  0
   -5.1547   -1.8354   -0.2612 N   0  0  0  0  0  0  0  0  0  0  0  0
   -5.3964   -0.5252    0.0919 C   0  0  0  0  0  0  0  0  0  0  0  0
   -6.0776   -0.3473    1.4767 C   0  0  2  0  0  0  0  0  0  0  0  0
   -7.5929   -0.0256    1.3408 C   0  0  0  0  0  0  0  0  0  0  0  0
   -8.2693    0.0021    2.7191 C   0  0  0  0  0  0  0  0  0  0  0  0
   -8.3278   -1.0360    0.4517 C   0  0  0  0  0  0  0  0  0  0  0  0
   -5.3640    0.6613    2.3099 N   0  0  0  0  0  0  0  0  0  0  0  0
   -4.5287    0.1852    3.3292 C   0  0  0  0  0  0  0  0  0  0  0  0
   -3.8486    1.2106    4.2719 C   0  0  0  0  0  0  0  0  0  0  0  0
   -4.9078    1.8001    5.2127 C   0  0  0  0  0  0  0  0  0  0  0  0
   -4.2771    2.7489    6.2186 C   0  0  0  0  0  0  0  0  0  0  0  0
   -3.1747    2.1248    6.9367 N   0  0  0  0  0  0  0  0  0  0  0  0
   -2.9486    2.5369    8.2508 C   0  0  0  0  0  0  0  0  0  0  0  0
   -1.7546    2.0924    8.9373 C   0  0  0  0  0  0  0  0  0  0  0  0
   -0.7906    1.7511    9.5711 C   0  0  0  0  0  0  0  0  0  0  0  0
    0.3640    1.3370   10.4119 C   0  0  0  0  0  0  0  0  0  0  0  0
    1.5738    2.0809    9.9729 N   0  0  0  0  0  0  0  0  0  0  0  0
    1.5038    3.5266   10.2267 C   0  0  0  0  0  0  0  0  0  0  0  0
    2.8352    1.5661   10.5076 C   0  0  0  0  0  0  0  0  0  0  0  0
    0.5312   -0.1871   10.2030 C   0  0  0  0  0  0  0  0  0  0  0  0
   -0.0085    1.5708   11.8945 C   0  0  0  0  0  0  0  0  0  0  0  0
   -3.7210    3.2533    8.8780 O   0  0  0  0  0  0  0  0  0  0  0  0
   -2.1417    1.5028    6.1129 C   0  0  0  0  0  0  0  0  0  0  0  0
   -2.7411    0.5404    5.0924 C   0  0  0  0  0  0  0  0  0  0  0  0
   -4.4131   -1.0250    3.5477 O   0  0  0  0  0  0  0  0  0  0  0  0
   -5.2079    2.0070    1.7629 C   0  0  0  0  0  0  0  0  0  0  0  0
   -5.1082    0.4147   -0.6472 O   0  0  0  0  0  0  0  0  0  0  0  0
   -3.6070   -3.3338   -1.4773 C   0  0  0  0  0  0  0  0  0  0  0  0
   -2.2959   -2.9667   -0.7598 C   0  0  1  0  0  0  0  0  0  0  0  0
   -1.6405   -1.7243   -1.3830 C   0  0  0  0  0  0  0  0  0  0  0  0
   -0.4006   -1.3206   -0.6803 N   0  0  0  0  0  0  0  0  0  0  0  0
   -0.6071   -1.2506    0.7926 C   0  0  0  0  0  0  0  0  0  0  0  0
   -1.3052   -2.5173    1.3171 C   0  0  0  0  0  0  0  0  0  0  0  0
   -2.5425   -2.7792    0.6390 O   0  0  0  0  0  0  0  0  0  0  0  0
   -6.8182   -3.2369   -1.8705 O   0  0  0  0  0  0  0  0  0  0  0  0
   -6.7946   -3.3429   -4.5786 C   0  0  0  0  0  0  0  0  0  0  0  0
   -6.3785   -3.7431   -5.9844 C   0  0  0  0  0  0  0  0  0  0  0  0
   -5.7522   -2.5565   -6.7010 C   0  0  0  0  0  0  0  0  0  0  0  0
   -4.3197   -0.4269   -7.7705 O   0  0  0  0  0  0  0  0  0  0  0  0
    0.5016    1.4361   -3.1039 C   0  0  0  0  0  0  0  0  0  0  0  0
    1.4939    2.0913   -2.3920 C   0  0  0  0  0  0  0  0  0  0  0  0
    1.9116    1.6300   -1.1354 C   0  0  0  0  0  0  0  0  0  0  0  0
    1.2790    0.4931   -0.5935 C   0  0  0  0  0  0  0  0  0  0  0  0
    0.2449   -0.1885   -1.2496 C   0  0  0  0  0  0  0  0  0  0  0  0
   -0.0850    0.2862   -2.5329 C   0  0  0  0  0  0  0  0  0  0  0  0
   -3.2639    2.2361    3.5776 F   0  0  0  0  0  0  0  0  0  0  0  0
    0.4452    7.9670   -2.9908 H   0  0  0  0  0  0  0  0  0  0  0  0
    1.9657    7.1485   -3.3052 H   0  0  0  0  0  0  0  0  0  0  0  0
    1.2447    8.1823   -4.5579 H   0  0  0  0  0  0  0  0  0  0  0  0
   -0.6667    6.5856   -4.7829 H   0  0  0  0  0  0  0  0  0  0  0  0
   -1.2630    6.6695   -2.0505 H   0  0  0  0  0  0  0  0  0  0  0  0
   -2.1253    5.7731   -3.3464 H   0  0  0  0  0  0  0  0  0  0  0  0
   -1.5819    4.9271   -1.8869 H   0  0  0  0  0  0  0  0  0  0  0  0
    2.2231    6.5740   -8.3151 H   0  0  0  0  0  0  0  0  0  0  0  0
    2.9835    4.1982   -8.4662 H   0  0  0  0  0  0  0  0  0  0  0  0
    2.4612    2.6731   -6.5810 H   0  0  0  0  0  0  0  0  0  0  0  0
    2.8923    4.9828   -3.3188 H   0  0  0  0  0  0  0  0  0  0  0  0
    2.9825    4.2020   -1.7498 H   0  0  0  0  0  0  0  0  0  0  0  0
    4.5493    2.4673   -2.7121 H   0  0  0  0  0  0  0  0  0  0  0  0
    4.4268    3.2431   -4.2963 H   0  0  0  0  0  0  0  0  0  0  0  0
    5.1838    4.1054   -2.9473 H   0  0  0  0  0  0  0  0  0  0  0  0
   -0.2080    1.8765   -6.4029 H   0  0  0  0  0  0  0  0  0  0  0  0
   -0.6842    0.5579   -5.3802 H   0  0  0  0  0  0  0  0  0  0  0  0
   -1.6181    4.3225   -5.2189 H   0  0  0  0  0  0  0  0  0  0  0  0
   -1.6574    3.7323   -6.8897 H   0  0  0  0  0  0  0  0  0  0  0  0
   -3.1623    4.0220   -6.0033 H   0  0  0  0  0  0  0  0  0  0  0  0
   -2.7317    1.1599   -3.5559 H   0  0  0  0  0  0  0  0  0  0  0  0
   -2.2059    2.8256   -3.2830 H   0  0  0  0  0  0  0  0  0  0  0  0
   -3.7781    2.5042   -4.0079 H   0  0  0  0  0  0  0  0  0  0  0  0
   -3.9265    1.8624   -6.5410 H   0  0  0  0  0  0  0  0  0  0  0  0
   -2.4549    1.2180   -7.3049 H   0  0  0  0  0  0  0  0  0  0  0  0
   -3.7634   -2.6853   -5.8444 H   0  0  0  0  0  0  0  0  0  0  0  0
   -4.2092   -1.3145   -4.0028 H   0  0  0  0  0  0  0  0  0  0  0  0
   -4.2437   -1.3212   -2.0559 H   0  0  0  0  0  0  0  0  0  0  0  0
   -5.5766   -2.5743    0.2903 H   0  0  0  0  0  0  0  0  0  0  0  0
   -6.0170   -1.3176    1.9867 H   0  0  0  0  0  0  0  0  0  0  0  0
   -7.7282    0.9602    0.8822 H   0  0  0  0  0  0  0  0  0  0  0  0
   -8.1922   -0.9708    3.2156 H   0  0  0  0  0  0  0  0  0  0  0  0
   -7.8191    0.7545    3.3738 H   0  0  0  0  0  0  0  0  0  0  0  0
   -9.3315    0.2468    2.6250 H   0  0  0  0  0  0  0  0  0  0  0  0
   -8.1776   -2.0614    0.8060 H   0  0  0  0  0  0  0  0  0  0  0  0
   -9.4054   -0.8356    0.4427 H   0  0  0  0  0  0  0  0  0  0  0  0
   -7.9811   -0.9731   -0.5841 H   0  0  0  0  0  0  0  0  0  0  0  0
   -5.6783    2.3421    4.6559 H   0  0  0  0  0  0  0  0  0  0  0  0
   -5.4185    0.9870    5.7458 H   0  0  0  0  0  0  0  0  0  0  0  0
   -3.8789    3.6378    5.7153 H   0  0  0  0  0  0  0  0  0  0  0  0
   -5.0473    3.0900    6.9187 H   0  0  0  0  0  0  0  0  0  0  0  0
    1.5642    3.7656   11.2949 H   0  0  0  0  0  0  0  0  0  0  0  0
    2.3375    4.0341    9.7280 H   0  0  0  0  0  0  0  0  0  0  0  0
    0.5941    3.9767    9.8193 H   0  0  0  0  0  0  0  0  0  0  0  0
    2.8630    1.5744   11.6028 H   0  0  0  0  0  0  0  0  0  0  0  0
    3.0357    0.5487   10.1561 H   0  0  0  0  0  0  0  0  0  0  0  0
    3.6796    2.1676   10.1497 H   0  0  0  0  0  0  0  0  0  0  0  0
    1.2627   -0.6209   10.8922 H   0  0  0  0  0  0  0  0  0  0  0  0
   -0.4138   -0.7189   10.3688 H   0  0  0  0  0  0  0  0  0  0  0  0
    0.8467   -0.4170    9.1762 H   0  0  0  0  0  0  0  0  0  0  0  0
    0.8031    1.2829   12.5698 H   0  0  0  0  0  0  0  0  0  0  0  0
   -0.2636    2.6180   12.0973 H   0  0  0  0  0  0  0  0  0  0  0  0
   -0.8904    0.9815   12.1763 H   0  0  0  0  0  0  0  0  0  0  0  0
   -1.5940    2.3084    5.6088 H   0  0  0  0  0  0  0  0  0  0  0  0
   -1.4224    0.9594    6.7328 H   0  0  0  0  0  0  0  0  0  0  0  0
   -3.1362   -0.3360    5.6216 H   0  0  0  0  0  0  0  0  0  0  0  0
   -1.9466    0.1847    4.4271 H   0  0  0  0  0  0  0  0  0  0  0  0
   -5.2036    2.7537    2.5583 H   0  0  0  0  0  0  0  0  0  0  0  0
   -4.2554    2.0627    1.2259 H   0  0  0  0  0  0  0  0  0  0  0  0
   -6.0293    2.2582    1.0877 H   0  0  0  0  0  0  0  0  0  0  0  0
   -4.0593   -4.1929   -0.9596 H   0  0  0  0  0  0  0  0  0  0  0  0
   -3.3590   -3.6808   -2.4900 H   0  0  0  0  0  0  0  0  0  0  0  0
   -1.6153   -3.8230   -0.8634 H   0  0  0  0  0  0  0  0  0  0  0  0
   -1.4303   -1.9831   -2.4268 H   0  0  0  0  0  0  0  0  0  0  0  0
   -2.3352   -0.8739   -1.3387 H   0  0  0  0  0  0  0  0  0  0  0  0
    0.3471   -1.1687    1.3265 H   0  0  0  0  0  0  0  0  0  0  0  0
   -1.2268   -0.3748    1.0322 H   0  0  0  0  0  0  0  0  0  0  0  0
   -0.6504   -3.3920    1.2148 H   0  0  0  0  0  0  0  0  0  0  0  0
   -1.5286   -2.3984    2.3830 H   0  0  0  0  0  0  0  0  0  0  0  0
   -7.1616   -4.2308   -4.0463 H   0  0  0  0  0  0  0  0  0  0  0  0
   -7.6154   -2.6132   -4.6006 H   0  0  0  0  0  0  0  0  0  0  0  0
   -5.6501   -4.5637   -5.9327 H   0  0  0  0  0  0  0  0  0  0  0  0
   -7.2456   -4.1086   -6.5451 H   0  0  0  0  0  0  0  0  0  0  0  0
   -6.5204   -1.7919   -6.8760 H   0  0  0  0  0  0  0  0  0  0  0  0
   -5.3982   -2.8734   -7.6892 H   0  0  0  0  0  0  0  0  0  0  0  0
    2.7028    2.1260   -0.5814 H   0  0  0  0  0  0  0  0  0  0  0  0
    1.6438    0.1547    0.3721 H   0  0  0  0  0  0  0  0  0  0  0  0
   -0.8339   -0.1984   -3.1414 H   0  0  0  0  0  0  0  0  0  0  0  0
  1  2  1  0
  2  3  1  0
  2  5  1  0
  3  4  1  0
  5  6  2  0
  5 10  1  0
  6  7  1  0
  7  8  2  0
  8  9  1  0
  9 10  2  0
 10 11  1  0
 11 12  1  0
 11 15  2  0
 12 13  1  0
 12 68  1  0
 13 14  1  0
 15 16  1  0
 15 67  1  0
 16 17  1  0
 17 18  1  0
 17 19  1  0
 17 20  1  0
 20 21  1  0
 21 22  1  0
 22 23  1  0
 22 66  2  0
 23 24  1  0
 23 65  1  0
 24 25  1  0
 25 26  1  0
 25 63  1  0
 26 27  1  0
 26 62  2  0
 27 28  1  0
 27 55  1  0
 28 29  1  0
 29 30  1  0
 29 54  2  0
 30 31  1  0
 30 34  1  0
 31 32  1  0
 31 33  1  0
 34 35  1  0
 34 53  1  0
 35 36  1  0
 35 52  2  0
 36 37  1  0
 36 51  1  0
 36 73  1  0
 37 38  1  0
 38 39  1  0
 39 40  1  0
 39 50  1  0
 40 41  1  0
 40 49  2  0
 42 43  1  0
 43 44  1  0
 43 47  1  0
 43 48  1  0
 44 45  1  0
 44 46  1  0
 50 51  1  0
 55 56  1  0
 56 57  1  0
 56 61  1  0
 57 58  1  0
 58 59  1  0
 58 71  1  0
 59 60  1  0
 60 61  1  0
 63 64  1  0
 64 65  1  0
 67 68  2  0
 67 72  1  0
 68 69  1  0
 69 70  2  0
 70 71  1  0
 71 72  2  0
 41 42  3  0
  1 74  1  0
  1 75  1  0
  1 76  1  0
  2 77  1  6
  4 78  1  0
  4 79  1  0
  4 80  1  0
  7 81  1  0
  8 82  1  0
  9 83  1  0
 13 84  1  0
 13 85  1  0
 14 86  1  0
 14 87  1  0
 14 88  1  0
 16 89  1  0
 16 90  1  0
 18 91  1  0
 18 92  1  0
 18 93  1  0
 19 94  1  0
 19 95  1  0
 19 96  1  0
 20 97  1  0
 20 98  1  0
 23 99  1  1
 24100  1  0
 27101  1  6
 28102  1  0
 30103  1  1
 31104  1  0
 32105  1  0
 32106  1  0
 32107  1  0
 33108  1  0
 33109  1  0
 33110  1  0
 37111  1  0
 37112  1  0
 38113  1  0
 38114  1  0
 45115  1  0
 45116  1  0
 45117  1  0
 46118  1  0
 46119  1  0
 46120  1  0
 47121  1  0
 47122  1  0
 47123  1  0
 48124  1  0
 48125  1  0
 48126  1  0
 50127  1  0
 50128  1  0
 51129  1  0
 51130  1  0
 53131  1  0
 53132  1  0
 53133  1  0
 55134  1  0
 55135  1  0
 56136  1  1
 57137  1  0
 57138  1  0
 59139  1  0
 59140  1  0
 60141  1  0
 60142  1  0
 63143  1  0
 63144  1  0
 64145  1  0
 64146  1  0
 65147  1  0
 65148  1  0
 69149  1  0
 70150  1  0
 72151  1  0
M  END
$$$$
