mol_bioactive_7
     RDKit          3D

151157  0  0  0  0  0  0  0  0999 V2000
   -5.8291    5.5108   -1.2750 C   0  0  0  0  0  0  0  0  0  0  0  0
   -5.4817    5.5752   -2.7588 C   0  0  2  0  0  0  0  0  0  0  0  0
   -4.6795    4.4513   -3.1350 O   0  0  0  0  0  0  0  0  0  0  0  0
   -5.4463    3.3417   -3.5757 C   0  0  0  0  0  0  0  0  0  0  0  0
   -4.8445    6.9144   -3.1127 C   0  0  0  0  0  0  0  0  0  0  0  0
   -5.7242    7.7992   -3.6830 N   0  0  0  0  0  0  0  0  0  0  0  0
   -5.2924    9.0424   -3.9751 C   0  0  0  0  0  0  0  0  0  0  0  0
   -4.0135    9.4844   -3.7180 C   0  0  0  0  0  0  0  0  0  0  0  0
   -3.1242    8.5907   -3.1352 C   0  0  0  0  0  0  0  0  0  0  0  0
   -3.5167    7.2774   -2.8262 C   0  0  0  0  0  0  0  0  0  0  0  0
   -2.5059    6.3944   -2.2254 C   0  0  0  0  0  0  0  0  0  0  0  0
   -2.1362    6.4509   -0.8881 N   0  0  0  0  0  0  0  0  0  0  0  0
   -2.6835    7.3582    0.1134 C   0  0  0  0  0  0  0  0  0  0  0  0
   -1.7814    8.5546    0.3707 C   0  0  0  0  0  0  0  0  0  0  0  0
   -1.7061    5.4251   -2.8355 C   0  0  0  0  0  0  0  0  0  0  0  0
   -1.7279    4.9845   -4.2854 C   0  0  0  0  0  0  0  0  0  0  0  0
   -0.7057    5.6368   -5.2627 C   0  0  0  0  0  0  0  0  0  0  0  0
   -1.0796    5.1746   -6.6898 C   0  0  0  0  0  0  0  0  0  0  0  0
   -0.8145    7.1728   -5.2355 C   0  0  0  0  0  0  0  0  0  0  0  0
    0.7652    5.2591   -4.9524 C   0  0  0  0  0  0  0  0  0  0  0  0
    1.1014    3.8948   -5.2910 O   0  0  0  0  0  0  0  0  0  0  0  0
    1.8820    3.7435   -6.4105 C   0  0  0  0  0  0  0  0  0  0  0  0
    2.4109    2.3082   -6.5293 C   0  0  1  0  0  0  0  0  0  0  0  0
    1.3128    1.3257   -6.4903 N   0  0  0  0  0  0  0  0  0  0  0  0
    1.8260    0.0003   -6.5698 N   0  0  0  0  0  0  0  0  0  0  0  0
    2.0791   -0.8393   -5.4742 C   0  0  0  0  0  0  0  0  0  0  0  0
    1.7237   -0.3267   -4.0662 C   0  0  1  0  0  0  0  0  0  0  0  0
    0.7664   -1.2282   -3.4459 N   0  0  0  0  0  0  0  0  0  0  0  0
   -0.5901   -1.0140   -3.5635 C   0  0  0  0  0  0  0  0  0  0  0  0
   -1.4850   -2.0671   -2.8556 C   0  0  2  0  0  0  0  0  0  0  0  0
   -1.9675   -3.1620   -3.8439 C   0  0  0  0  0  0  0  0  0  0  0  0
   -2.7753   -4.2408   -3.1098 C   0  0  0  0  0  0  0  0  0  0  0  0
   -0.7988   -3.8458   -4.5682 C   0  0  0  0  0  0  0  0  0  0  0  0
   -2.5701   -1.3382   -2.1352 N   0  0  0  0  0  0  0  0  0  0  0  0
   -2.2691   -0.9034   -0.8393 C   0  0  0  0  0  0  0  0  0  0  0  0
   -3.2030    0.0966   -0.1103 C   0  0  0  0  0  0  0  0  0  0  0  0
   -2.8446    0.1494    1.3809 C   0  0  0  0  0  0  0  0  0  0  0  0
   -3.6823    1.1797    2.1221 C   0  0  0  0  0  0  0  0  0  0  0  0
   -3.6301    2.4884    1.4809 N   0  0  0  0  0  0  0  0  0  0  0  0
   -3.8670    3.6660    2.1924 C   0  0  0  0  0  0  0  0  0  0  0  0
   -3.6881    3.6646    3.6275 C   0  0  0  0  0  0  0  0  0  0  0  0
   -3.5321    3.7381    4.8179 C   0  0  0  0  0  0  0  0  0  0  0  0
   -3.3338    3.8885    6.2838 C   0  0  0  0  0  0  0  0  0  0  0  0
   -3.3632    5.3361    6.6226 N   0  0  0  0  0  0  0  0  0  0  0  0
   -4.6629    5.9784    6.3904 C   0  0  0  0  0  0  0  0  0  0  0  0
   -2.8972    5.6657    7.9698 C   0  0  0  0  0  0  0  0  0  0  0  0
   -1.9520    3.2654    6.5990 C   0  0  0  0  0  0  0  0  0  0  0  0
   -4.4112    3.0581    7.0128 C   0  0  0  0  0  0  0  0  0  0  0  0
   -4.2136    4.7226    1.6765 O   0  0  0  0  0  0  0  0  0  0  0  0
   -3.8937    2.5146    0.0474 C   0  0  0  0  0  0  0  0  0  0  0  0
   -3.0629    1.4948   -0.7152 C   0  0  0  0  0  0  0  0  0  0  0  0
   -1.2314   -1.2844   -0.2821 O   0  0  0  0  0  0  0  0  0  0  0  0
   -3.7200   -0.8693   -2.9102 C   0  0  0  0  0  0  0  0  0  0  0  0
   -1.0363   -0.0558   -4.1955 O   0  0  0  0  0  0  0  0  0  0  0  0
    3.0054   -0.1746   -3.2253 C   0  0  0  0  0  0  0  0  0  0  0  0
    2.7937    0.4623   -1.8359 C   0  0  1  0  0  0  0  0  0  0  0  0
    1.8251    1.6563   -1.8920 C   0  0  0  0  0  0  0  0  0  0  0  0
    1.5715    2.2508   -0.5656 N   0  0  0  0  0  0  0  0  0  0  0  0
    1.1696    1.2041    0.4141 C   0  0  0  0  0  0  0  0  0  0  0  0
    2.1449    0.0123    0.3833 C   0  0  0  0  0  0  0  0  0  0  0  0
    2.2996   -0.5435   -0.9348 O   0  0  0  0  0  0  0  0  0  0  0  0
    2.5834   -1.9602   -5.6090 O   0  0  0  0  0  0  0  0  0  0  0  0
    2.4341   -0.2972   -7.8686 C   0  0  0  0  0  0  0  0  0  0  0  0
    3.6080    0.6607   -8.0816 C   0  0  0  0  0  0  0  0  0  0  0  0
    3.1755    2.1189   -7.8586 C   0  0  0  0  0  0  0  0  0  0  0  0
    2.1906    4.6531   -7.1714 O   0  0  0  0  0  0  0  0  0  0  0  0
   -0.9174    4.8290   -1.7982 C   0  0  0  0  0  0  0  0  0  0  0  0
   -1.1902    5.4839   -0.6052 C   0  0  0  0  0  0  0  0  0  0  0  0
   -0.5509    5.1239    0.5924 C   0  0  0  0  0  0  0  0  0  0  0  0
    0.3687    4.0616    0.5693 C   0  0  0  0  0  0  0  0  0  0  0  0
    0.6537    3.3418   -0.5957 C   0  0  0  0  0  0  0  0  0  0  0  0
    0.0079    3.7632   -1.7766 C   0  0  0  0  0  0  0  0  0  0  0  0
   -4.5148   -0.2923   -0.1838 F   0  0  0  0  0  0  0  0  0  0  0  0
   -4.9282    5.5159   -0.6603 H   0  0  0  0  0  0  0  0  0  0  0  0
   -6.4522    6.3586   -0.9712 H   0  0  0  0  0  0  0  0  0  0  0  0
   -6.3649    4.5866   -1.0367 H   0  0  0  0  0  0  0  0  0  0  0  0
   -6.4256    5.5266   -3.3203 H   0  0  0  0  0  0  0  0  0  0  0  0
   -6.1191    2.9939   -2.7874 H   0  0  0  0  0  0  0  0  0  0  0  0
   -6.0157    3.5999   -4.4732 H   0  0  0  0  0  0  0  0  0  0  0  0
   -4.7583    2.5295   -3.8269 H   0  0  0  0  0  0  0  0  0  0  0  0
   -6.0312    9.6933   -4.4328 H   0  0  0  0  0  0  0  0  0  0  0  0
   -3.7113   10.4940   -3.9679 H   0  0  0  0  0  0  0  0  0  0  0  0
   -2.1060    8.9154   -2.9329 H   0  0  0  0  0  0  0  0  0  0  0  0
   -3.6750    7.6892   -0.2091 H   0  0  0  0  0  0  0  0  0  0  0  0
   -2.8257    6.7909    1.0379 H   0  0  0  0  0  0  0  0  0  0  0  0
   -2.2280    9.2100    1.1251 H   0  0  0  0  0  0  0  0  0  0  0  0
   -0.7972    8.2416    0.7353 H   0  0  0  0  0  0  0  0  0  0  0  0
   -1.6236    9.1415   -0.5391 H   0  0  0  0  0  0  0  0  0  0  0  0
   -1.6079    3.8930   -4.3162 H   0  0  0  0  0  0  0  0  0  0  0  0
   -2.7371    5.1684   -4.6758 H   0  0  0  0  0  0  0  0  0  0  0  0
   -1.0503    4.0837   -6.7816 H   0  0  0  0  0  0  0  0  0  0  0  0
   -2.0927    5.4969   -6.9568 H   0  0  0  0  0  0  0  0  0  0  0  0
   -0.3974    5.5971   -7.4355 H   0  0  0  0  0  0  0  0  0  0  0  0
   -0.4976    7.5810   -4.2707 H   0  0  0  0  0  0  0  0  0  0  0  0
   -0.1738    7.6271   -6.0003 H   0  0  0  0  0  0  0  0  0  0  0  0
   -1.8381    7.5005   -5.4419 H   0  0  0  0  0  0  0  0  0  0  0  0
    1.4468    5.9593   -5.4526 H   0  0  0  0  0  0  0  0  0  0  0  0
    0.9817    5.3864   -3.8880 H   0  0  0  0  0  0  0  0  0  0  0  0
    3.0977    2.1525   -5.6876 H   0  0  0  0  0  0  0  0  0  0  0  0
    0.6473    1.4701   -5.7274 H   0  0  0  0  0  0  0  0  0  0  0  0
    1.2574    0.6486   -4.1529 H   0  0  0  0  0  0  0  0  0  0  0  0
    1.1195   -2.0482   -2.9641 H   0  0  0  0  0  0  0  0  0  0  0  0
   -0.8599   -2.5689   -2.1062 H   0  0  0  0  0  0  0  0  0  0  0  0
   -2.6013   -2.7135   -4.6171 H   0  0  0  0  0  0  0  0  0  0  0  0
   -3.6366   -3.8220   -2.5821 H   0  0  0  0  0  0  0  0  0  0  0  0
   -3.1573   -4.9853   -3.8177 H   0  0  0  0  0  0  0  0  0  0  0  0
   -2.1542   -4.7655   -2.3745 H   0  0  0  0  0  0  0  0  0  0  0  0
   -0.0750   -4.2557   -3.8562 H   0  0  0  0  0  0  0  0  0  0  0  0
   -1.1590   -4.6695   -5.1942 H   0  0  0  0  0  0  0  0  0  0  0  0
   -0.2761   -3.1482   -5.2287 H   0  0  0  0  0  0  0  0  0  0  0  0
   -3.0033   -0.8343    1.8396 H   0  0  0  0  0  0  0  0  0  0  0  0
   -1.7841    0.3997    1.5123 H   0  0  0  0  0  0  0  0  0  0  0  0
   -4.7350    0.8728    2.1522 H   0  0  0  0  0  0  0  0  0  0  0  0
   -3.3367    1.2386    3.1577 H   0  0  0  0  0  0  0  0  0  0  0  0
   -5.4253    5.6473    7.1047 H   0  0  0  0  0  0  0  0  0  0  0  0
   -4.5671    7.0669    6.4872 H   0  0  0  0  0  0  0  0  0  0  0  0
   -5.0384    5.8031    5.3777 H   0  0  0  0  0  0  0  0  0  0  0  0
   -3.4967    5.1868    8.7501 H   0  0  0  0  0  0  0  0  0  0  0  0
   -1.8475    5.3929    8.1115 H   0  0  0  0  0  0  0  0  0  0  0  0
   -2.9364    6.7489    8.1367 H   0  0  0  0  0  0  0  0  0  0  0  0
   -1.7666    3.1967    7.6759 H   0  0  0  0  0  0  0  0  0  0  0  0
   -1.8766    2.2464    6.1986 H   0  0  0  0  0  0  0  0  0  0  0  0
   -1.1386    3.8454    6.1459 H   0  0  0  0  0  0  0  0  0  0  0  0
   -4.3122    3.1265    8.1006 H   0  0  0  0  0  0  0  0  0  0  0  0
   -5.4268    3.3686    6.7426 H   0  0  0  0  0  0  0  0  0  0  0  0
   -4.3321    1.9965    6.7466 H   0  0  0  0  0  0  0  0  0  0  0  0
   -4.9652    2.3240   -0.0930 H   0  0  0  0  0  0  0  0  0  0  0  0
   -3.6857    3.5113   -0.3521 H   0  0  0  0  0  0  0  0  0  0  0  0
   -2.0090    1.7937   -0.6955 H   0  0  0  0  0  0  0  0  0  0  0  0
   -3.3719    1.5156   -1.7639 H   0  0  0  0  0  0  0  0  0  0  0  0
   -4.4918   -0.4172   -2.2920 H   0  0  0  0  0  0  0  0  0  0  0  0
   -3.3962   -0.1270   -3.6424 H   0  0  0  0  0  0  0  0  0  0  0  0
   -4.1897   -1.7076   -3.4285 H   0  0  0  0  0  0  0  0  0  0  0  0
    3.4843   -1.1544   -3.1026 H   0  0  0  0  0  0  0  0  0  0  0  0
    3.7086    0.4541   -3.7874 H   0  0  0  0  0  0  0  0  0  0  0  0
    3.7724    0.7892   -1.4602 H   0  0  0  0  0  0  0  0  0  0  0  0
    2.2407    2.4060   -2.5765 H   0  0  0  0  0  0  0  0  0  0  0  0
    0.8594    1.2978   -2.2621 H   0  0  0  0  0  0  0  0  0  0  0  0
    1.1453    1.5973    1.4354 H   0  0  0  0  0  0  0  0  0  0  0  0
    0.1680    0.8477    0.1561 H   0  0  0  0  0  0  0  0  0  0  0  0
    3.1320    0.3078    0.7582 H   0  0  0  0  0  0  0  0  0  0  0  0
    1.7702   -0.7853    1.0332 H   0  0  0  0  0  0  0  0  0  0  0  0
    2.7773   -1.3349   -7.9166 H   0  0  0  0  0  0  0  0  0  0  0  0
    1.6699   -0.1560   -8.6415 H   0  0  0  0  0  0  0  0  0  0  0  0
    4.4090    0.4183   -7.3710 H   0  0  0  0  0  0  0  0  0  0  0  0
    4.0182    0.5385   -9.0896 H   0  0  0  0  0  0  0  0  0  0  0  0
    2.5432    2.4324   -8.7006 H   0  0  0  0  0  0  0  0  0  0  0  0
    4.0607    2.7663   -7.8779 H   0  0  0  0  0  0  0  0  0  0  0  0
   -0.7569    5.6429    1.5233 H   0  0  0  0  0  0  0  0  0  0  0  0
    0.8749    3.8123    1.4983 H   0  0  0  0  0  0  0  0  0  0  0  0
    0.1678    3.2651   -2.7235 H   0  0  0  0  0  0  0  0  0  0  0  0
  1  2  1  0
  2  3  1  0
  2  5  1  0
  3  4  1  0
  5  6  2  0
  5 10  1  0
  6  7  1  0
  7  8  2  0
  8  9  1  0
  9 10  2  0
 10 11  1  0
 11 12  1  0
 11 15  2  0
 12 13  1  0
 12 68  1  0
 13 14  1  0
 15 16  1  0
 15 67  1  0
 16 17  1  0
 17 18  1  0
 17 19  1  0
 17 20  1  0
 20 21  1  0
 21 22  1  0
 22 23  1  0
 22 66  2  0
 23 24  1  0
 23 65  1  0
 24 25  1  0
 25 26  1  0
 25 63  1  0
 26 27  1  0
 26 62  2  0
 27 28  1  0
 27 55  1  0
 28 29  1  0
 29 30  1  0
 29 54  2  0
 30 31  1  0
 30 34  1  0
 31 32  1  0
 31 33  1  0
 34 35  1  0
 34 53  1  0
 35 36  1  0
 35 52  2  0
 36 37  1  0
 36 51  1  0
 36 73  1  0
 37 38  1  0
 38 39  1  0
 39 40  1  0
 39 50  1  0
 40 41  1  0
 40 49  2  0
 42 43  1  0
 43 44  1  0
 43 47  1  0
 43 48  1  0
 44 45  1  0
 44 46  1  0
 50 51  1  0
 55 56  1  0
 56 57  1  0
 56 61  1  0
 57 58  1  0
 58 59  1  0
 58 71  1  0
 59 60  1  0
 60 61  1  0
 63 64  1  0
 64 65  1  0
 67 68  2  0
 67 72  1  0
 68 69  1  0
 69 70  2  0
 70 71  1  0
 71 72  2  0
 41 42  3  0
  1 74  1  0
  1 75  1  0
  1 76  1  0
  2 77  1  6
  4 78  1  0
  4 79  1  0
  4 80  1  0
  7 81  1  0
  8 82  1  0
  9 83  1  0
 13 84  1  0
 13 85  1  0
 14 86  1  0
 14 87  1  0
 14 88  1  0
 16 89  1  0
 16 90  1  0
 18 91  1  0
 18 92  1  0
 18 93  1  0
 19 94  1  0
 19 95  1  0
 19 96  1  0
 20 97  1  0
 20 98  1  0
 23 99  1  1
 24100  1  0
 27101  1  6
 28102  1  0
 30103  1  1
 31104  1  0
 32105  1  0
 32106  1  0
 32107  1  0
 33108  1  0
 33109  1  0
 33110  1  0
 37111  1  0
 37112  1  0
 38113  1  0
 38114  1  0
 45115  1  0
 45116  1  0
 45117  1  0
 46118  1  0
 46119  1  0
 46120  1  0
 47121  1  0
 47122  1  0
 47123  1  0
 48124  1  0
 48125  1  0
 48126  1  0
 50127  1  0
 50128  1  0
 51129  1  0
 51130  1  0
 53131  1  0
 53132  1  0
 53133  1  0
 55134  1  0
 55135  1  0
 56136  1  1
 57137  1  0
 57138  1  0
 59139  1  0
 59140  1  0
 60141  1  0
 60142  1  0
 63143  1  0
 63144  1  0
 64145  1  0
 64146  1  0
 65147  1  0
 65148  1  0
 69149  1  0
 70150  1  0
 72151  1  0
M  END
$$$$
