mol_bioactive_26
     RDKit          3D

151157  0  0  0  0  0  0  0  0999 V2000
   -4.0414    1.6481   -3.4590 C   0  0  0  0  0  0  0  0  0  0  0  0
   -4.2251    2.4380   -2.1657 C   0  0  2  0  0  0  0  0  0  0  0  0
   -2.9611    2.7485   -1.5651 O   0  0  0  0  0  0  0  0  0  0  0  0
   -2.3337    3.8873   -2.1328 C   0  0  0  0  0  0  0  0  0  0  0  0
   -5.1631    1.7260   -1.1956 C   0  0  0  0  0  0  0  0  0  0  0  0
   -6.4225    2.2626   -1.1517 N   0  0  0  0  0  0  0  0  0  0  0  0
   -7.3291    1.7107   -0.3184 C   0  0  0  0  0  0  0  0  0  0  0  0
   -7.0634    0.6247    0.4891 C   0  0  0  0  0  0  0  0  0  0  0  0
   -5.7911    0.0708    0.4364 C   0  0  0  0  0  0  0  0  0  0  0  0
   -4.8152    0.6053   -0.4199 C   0  0  0  0  0  0  0  0  0  0  0  0
   -3.4913   -0.0315   -0.4192 C   0  0  0  0  0  0  0  0  0  0  0  0
   -3.1698   -1.1188   -1.2022 N   0  0  0  0  0  0  0  0  0  0  0  0
   -4.0700   -1.8063   -2.1203 C   0  0  0  0  0  0  0  0  0  0  0  0
   -4.7105   -3.0338   -1.4931 C   0  0  0  0  0  0  0  0  0  0  0  0
   -2.3959    0.2551    0.4069 C   0  0  0  0  0  0  0  0  0  0  0  0
   -2.5063    1.3267    1.4854 C   0  0  0  0  0  0  0  0  0  0  0  0
   -1.2964    1.8919    2.2597 C   0  0  0  0  0  0  0  0  0  0  0  0
   -1.8186    3.0782    3.1228 C   0  0  0  0  0  0  0  0  0  0  0  0
   -0.2505    2.5118    1.3139 C   0  0  0  0  0  0  0  0  0  0  0  0
   -0.7567    0.8390    3.2585 C   0  0  0  0  0  0  0  0  0  0  0  0
    0.5950    1.1341    3.6485 O   0  0  0  0  0  0  0  0  0  0  0  0
    0.8291    1.4439    4.9624 C   0  0  0  0  0  0  0  0  0  0  0  0
    2.3375    1.6132    5.1619 C   0  0  1  0  0  0  0  0  0  0  0  0
    2.8660    2.5525    4.1596 N   0  0  0  0  0  0  0  0  0  0  0  0
    4.2744    2.5680    4.2021 N   0  0  0  0  0  0  0  0  0  0  0  0
    5.1074    2.1689    3.1518 C   0  0  0  0  0  0  0  0  0  0  0  0
    4.4839    1.2882    2.0407 C   0  0  1  0  0  0  0  0  0  0  0  0
    4.9201    1.7490    0.7335 N   0  0  0  0  0  0  0  0  0  0  0  0
    4.2083    2.7146    0.0552 C   0  0  0  0  0  0  0  0  0  0  0  0
    4.8048    3.1394   -1.3102 C   0  0  2  0  0  0  0  0  0  0  0  0
    5.4960    4.5254   -1.2084 C   0  0  0  0  0  0  0  0  0  0  0  0
    6.1547    4.9078   -2.5400 C   0  0  0  0  0  0  0  0  0  0  0  0
    6.5676    4.5503   -0.1093 C   0  0  0  0  0  0  0  0  0  0  0  0
    3.7276    3.0437   -2.3392 N   0  0  0  0  0  0  0  0  0  0  0  0
    3.5769    1.8037   -2.9663 C   0  0  0  0  0  0  0  0  0  0  0  0
    2.3582    1.5248   -3.8837 C   0  0  0  0  0  0  0  0  0  0  0  0
    2.6374    0.2659   -4.7188 C   0  0  0  0  0  0  0  0  0  0  0  0
    1.4401   -0.1179   -5.5686 C   0  0  0  0  0  0  0  0  0  0  0  0
    0.2328   -0.2387   -4.7613 N   0  0  0  0  0  0  0  0  0  0  0  0
   -0.7954   -1.1173   -5.0975 C   0  0  0  0  0  0  0  0  0  0  0  0
   -0.4591   -2.3020   -5.8585 C   0  0  0  0  0  0  0  0  0  0  0  0
   -0.1701   -3.3160   -6.4381 C   0  0  0  0  0  0  0  0  0  0  0  0
    0.2052   -4.5835   -7.1182 C   0  0  0  0  0  0  0  0  0  0  0  0
   -0.6755   -5.6747   -6.6248 N   0  0  0  0  0  0  0  0  0  0  0  0
   -0.5106   -5.9815   -5.1998 C   0  0  0  0  0  0  0  0  0  0  0  0
   -0.6067   -6.9169   -7.3957 C   0  0  0  0  0  0  0  0  0  0  0  0
    0.0066   -4.3406   -8.6328 C   0  0  0  0  0  0  0  0  0  0  0  0
    1.7071   -4.8391   -6.8674 C   0  0  0  0  0  0  0  0  0  0  0  0
   -1.9634   -0.9729   -4.7595 O   0  0  0  0  0  0  0  0  0  0  0  0
   -0.0939    0.9126   -3.9314 C   0  0  0  0  0  0  0  0  0  0  0  0
    1.0825    1.3329   -3.0570 C   0  0  0  0  0  0  0  0  0  0  0  0
    4.4049    0.9056   -2.7648 O   0  0  0  0  0  0  0  0  0  0  0  0
    2.7340    4.1159   -2.4021 C   0  0  0  0  0  0  0  0  0  0  0  0
    3.1751    3.1973    0.5187 O   0  0  0  0  0  0  0  0  0  0  0  0
    4.8506   -0.1818    2.3116 C   0  0  0  0  0  0  0  0  0  0  0  0
    4.2700   -1.1982    1.3119 C   0  0  1  0  0  0  0  0  0  0  0  0
    2.7681   -0.9741    1.0289 C   0  0  0  0  0  0  0  0  0  0  0  0
    2.2462   -1.9269    0.0188 N   0  0  0  0  0  0  0  0  0  0  0  0
    3.1040   -1.9277   -1.1984 C   0  0  0  0  0  0  0  0  0  0  0  0
    4.5853   -2.1141   -0.8334 C   0  0  0  0  0  0  0  0  0  0  0  0
    5.0434   -1.1258    0.1012 O   0  0  0  0  0  0  0  0  0  0  0  0
    6.3168    2.4253    3.1394 O   0  0  0  0  0  0  0  0  0  0  0  0
    4.8057    3.1556    5.4340 C   0  0  0  0  0  0  0  0  0  0  0  0
    4.2393    2.3985    6.6450 C   0  0  0  0  0  0  0  0  0  0  0  0
    2.7175    2.1759    6.5386 C   0  0  0  0  0  0  0  0  0  0  0  0
   -0.0180    1.5061    5.8397 O   0  0  0  0  0  0  0  0  0  0  0  0
   -1.3372   -0.6359   -0.0117 C   0  0  0  0  0  0  0  0  0  0  0  0
   -1.8522   -1.4746   -1.0023 C   0  0  0  0  0  0  0  0  0  0  0  0
   -1.0818   -2.4833   -1.6052 C   0  0  0  0  0  0  0  0  0  0  0  0
    0.2594   -2.6261   -1.2297 C   0  0  0  0  0  0  0  0  0  0  0  0
    0.8626   -1.7906   -0.2883 C   0  0  0  0  0  0  0  0  0  0  0  0
    0.0246   -0.8415    0.3366 C   0  0  0  0  0  0  0  0  0  0  0  0
    2.1540    2.5449   -4.7765 F   0  0  0  0  0  0  0  0  0  0  0  0
   -3.4153    0.7680   -3.3015 H   0  0  0  0  0  0  0  0  0  0  0  0
   -5.0011    1.3250   -3.8758 H   0  0  0  0  0  0  0  0  0  0  0  0
   -3.5306    2.2527   -4.2149 H   0  0  0  0  0  0  0  0  0  0  0  0
   -4.7179    3.3858   -2.4252 H   0  0  0  0  0  0  0  0  0  0  0  0
   -1.3865    4.0522   -1.6112 H   0  0  0  0  0  0  0  0  0  0  0  0
   -2.1155    3.7302   -3.1928 H   0  0  0  0  0  0  0  0  0  0  0  0
   -2.9575    4.7763   -2.0016 H   0  0  0  0  0  0  0  0  0  0  0  0
   -8.3062    2.1843   -0.3191 H   0  0  0  0  0  0  0  0  0  0  0  0
   -7.8236    0.2210    1.1467 H   0  0  0  0  0  0  0  0  0  0  0  0
   -5.5518   -0.7816    1.0684 H   0  0  0  0  0  0  0  0  0  0  0  0
   -4.8412   -1.1061   -2.4530 H   0  0  0  0  0  0  0  0  0  0  0  0
   -3.4980   -2.0894   -3.0077 H   0  0  0  0  0  0  0  0  0  0  0  0
   -5.3178   -2.7648   -0.6234 H   0  0  0  0  0  0  0  0  0  0  0  0
   -5.3600   -3.5331   -2.2188 H   0  0  0  0  0  0  0  0  0  0  0  0
   -3.9550   -3.7531   -1.1612 H   0  0  0  0  0  0  0  0  0  0  0  0
   -3.0091    2.1864    1.0205 H   0  0  0  0  0  0  0  0  0  0  0  0
   -3.2230    0.9380    2.2250 H   0  0  0  0  0  0  0  0  0  0  0  0
   -1.0135    3.5170    3.7239 H   0  0  0  0  0  0  0  0  0  0  0  0
   -2.2347    3.8751    2.4962 H   0  0  0  0  0  0  0  0  0  0  0  0
   -2.6097    2.7536    3.8094 H   0  0  0  0  0  0  0  0  0  0  0  0
    0.5644    2.9843    1.8717 H   0  0  0  0  0  0  0  0  0  0  0  0
    0.1990    1.8003    0.6238 H   0  0  0  0  0  0  0  0  0  0  0  0
   -0.7077    3.2945    0.6968 H   0  0  0  0  0  0  0  0  0  0  0  0
   -1.4233    0.7522    4.1254 H   0  0  0  0  0  0  0  0  0  0  0  0
   -0.7423   -0.1632    2.8261 H   0  0  0  0  0  0  0  0  0  0  0  0
    2.7799    0.6171    5.0329 H   0  0  0  0  0  0  0  0  0  0  0  0
    2.4603    2.4247    3.2315 H   0  0  0  0  0  0  0  0  0  0  0  0
    3.4014    1.3711    2.0629 H   0  0  0  0  0  0  0  0  0  0  0  0
    5.7848    1.3782    0.3527 H   0  0  0  0  0  0  0  0  0  0  0  0
    5.5874    2.4142   -1.5671 H   0  0  0  0  0  0  0  0  0  0  0  0
    4.7582    5.2938   -0.9489 H   0  0  0  0  0  0  0  0  0  0  0  0
    6.6214    5.8964   -2.4695 H   0  0  0  0  0  0  0  0  0  0  0  0
    6.9325    4.1872   -2.8162 H   0  0  0  0  0  0  0  0  0  0  0  0
    5.4286    4.9476   -3.3575 H   0  0  0  0  0  0  0  0  0  0  0  0
    6.1238    4.4219    0.8825 H   0  0  0  0  0  0  0  0  0  0  0  0
    7.3109    3.7585   -0.2593 H   0  0  0  0  0  0  0  0  0  0  0  0
    7.0946    5.5112   -0.1032 H   0  0  0  0  0  0  0  0  0  0  0  0
    3.4986    0.4377   -5.3755 H   0  0  0  0  0  0  0  0  0  0  0  0
    2.8896   -0.5812   -4.0692 H   0  0  0  0  0  0  0  0  0  0  0  0
    1.2469    0.6446   -6.3333 H   0  0  0  0  0  0  0  0  0  0  0  0
    1.6611   -1.0480   -6.0984 H   0  0  0  0  0  0  0  0  0  0  0  0
    0.4549   -6.4509   -4.9824 H   0  0  0  0  0  0  0  0  0  0  0  0
   -0.6144   -5.0928   -4.5697 H   0  0  0  0  0  0  0  0  0  0  0  0
   -1.2965   -6.6716   -4.8692 H   0  0  0  0  0  0  0  0  0  0  0  0
   -1.2959   -7.6638   -6.9830 H   0  0  0  0  0  0  0  0  0  0  0  0
   -0.9300   -6.7698   -8.4307 H   0  0  0  0  0  0  0  0  0  0  0  0
    0.3962   -7.3554   -7.3970 H   0  0  0  0  0  0  0  0  0  0  0  0
   -1.0534   -4.2103   -8.8824 H   0  0  0  0  0  0  0  0  0  0  0  0
    0.5254   -3.4305   -8.9602 H   0  0  0  0  0  0  0  0  0  0  0  0
    0.4028   -5.1648   -9.2372 H   0  0  0  0  0  0  0  0  0  0  0  0
    1.9451   -4.8975   -5.7998 H   0  0  0  0  0  0  0  0  0  0  0  0
    2.0496   -5.7639   -7.3440 H   0  0  0  0  0  0  0  0  0  0  0  0
    2.3159   -4.0221   -7.2747 H   0  0  0  0  0  0  0  0  0  0  0  0
   -0.3923    1.7298   -4.5988 H   0  0  0  0  0  0  0  0  0  0  0  0
   -0.9528    0.6846   -3.2908 H   0  0  0  0  0  0  0  0  0  0  0  0
    1.2552    0.5701   -2.2898 H   0  0  0  0  0  0  0  0  0  0  0  0
    0.8050    2.2492   -2.5289 H   0  0  0  0  0  0  0  0  0  0  0  0
    2.1279    4.1106   -1.4928 H   0  0  0  0  0  0  0  0  0  0  0  0
    3.2297    5.0837   -2.5042 H   0  0  0  0  0  0  0  0  0  0  0  0
    2.0639    4.0186   -3.2535 H   0  0  0  0  0  0  0  0  0  0  0  0
    5.9449   -0.2827    2.3207 H   0  0  0  0  0  0  0  0  0  0  0  0
    4.5012   -0.4457    3.3183 H   0  0  0  0  0  0  0  0  0  0  0  0
    4.4153   -2.2013    1.7336 H   0  0  0  0  0  0  0  0  0  0  0  0
    2.2264   -1.0861    1.9759 H   0  0  0  0  0  0  0  0  0  0  0  0
    2.6194    0.0358    0.6323 H   0  0  0  0  0  0  0  0  0  0  0  0
    2.8335   -2.7270   -1.8938 H   0  0  0  0  0  0  0  0  0  0  0  0
    2.9839   -0.9674   -1.7067 H   0  0  0  0  0  0  0  0  0  0  0  0
    4.7615   -3.1104   -0.4120 H   0  0  0  0  0  0  0  0  0  0  0  0
    5.1995   -2.0222   -1.7348 H   0  0  0  0  0  0  0  0  0  0  0  0
    5.8996    3.1167    5.4445 H   0  0  0  0  0  0  0  0  0  0  0  0
    4.5030    4.2099    5.4602 H   0  0  0  0  0  0  0  0  0  0  0  0
    4.7261    1.4165    6.7040 H   0  0  0  0  0  0  0  0  0  0  0  0
    4.4790    2.9336    7.5703 H   0  0  0  0  0  0  0  0  0  0  0  0
    2.1985    3.1281    6.7159 H   0  0  0  0  0  0  0  0  0  0  0  0
    2.3913    1.4910    7.3316 H   0  0  0  0  0  0  0  0  0  0  0  0
   -1.5035   -3.1405   -2.3588 H   0  0  0  0  0  0  0  0  0  0  0  0
    0.8244   -3.4274   -1.6955 H   0  0  0  0  0  0  0  0  0  0  0  0
    0.4392   -0.1986    1.0937 H   0  0  0  0  0  0  0  0  0  0  0  0
  1  2  1  0
  2  3  1  0
  2  5  1  0
  3  4  1  0
  5  6  2  0
  5 10  1  0
  6  7  1  0
  7  8  2  0
  8  9  1  0
  9 10  2  0
 10 11  1  0
 11 12  1  0
 11 15  2  0
 12 13  1  0
 12 68  1  0
 13 14  1  0
 15 16  1  0
 15 67  1  0
 16 17  1  0
 17 18  1  0
 17 19  1  0
 17 20  1  0
 20 21  1  0
 21 22  1  0
 22 23  1  0
 22 66  2  0
 23 24  1  0
 23 65  1  0
 24 25  1  0
 25 26  1  0
 25 63  1  0
 26 27  1  0
 26 62  2  0
 27 28  1  0
 27 55  1  0
 28 29  1  0
 29 30  1  0
 29 54  2  0
 30 31  1  0
 30 34  1  0
 31 32  1  0
 31 33  1  0
 34 35  1  0
 34 53  1  0
 35 36  1  0
 35 52  2  0
 36 37  1  0
 36 51  1  0
 36 73  1  0
 37 38  1  0
 38 39  1  0
 39 40  1  0
 39 50  1  0
 40 41  1  0
 40 49  2  0
 42 43  1  0
 43 44  1  0
 43 47  1  0
 43 48  1  0
 44 45  1  0
 44 46  1  0
 50 51  1  0
 55 56  1  0
 56 57  1  0
 56 61  1  0
 57 58  1  0
 58 59  1  0
 58 71  1  0
 59 60  1  0
 60 61  1  0
 63 64  1  0
 64 65  1  0
 67 68  2  0
 67 72  1  0
 68 69  1  0
 69 70  2  0
 70 71  1  0
 71 72  2  0
 41 42  3  0
  1 74  1  0
  1 75  1  0
  1 76  1  0
  2 77  1  6
  4 78  1  0
  4 79  1  0
  4 80  1  0
  7 81  1  0
  8 82  1  0
  9 83  1  0
 13 84  1  0
 13 85  1  0
 14 86  1  0
 14 87  1  0
 14 88  1  0
 16 89  1  0
 16 90  1  0
 18 91  1  0
 18 92  1  0
 18 93  1  0
 19 94  1  0
 19 95  1  0
 19 96  1  0
 20 97  1  0
 20 98  1  0
 23 99  1  6
 24100  1  0
 27101  1  6
 28102  1  0
 30103  1  6
 31104  1  0
 32105  1  0
 32106  1  0
 32107  1  0
 33108  1  0
 33109  1  0
 33110  1  0
 37111  1  0
 37112  1  0
 38113  1  0
 38114  1  0
 45115  1  0
 45116  1  0
 45117  1  0
 46118  1  0
 46119  1  0
 46120  1  0
 47121  1  0
 47122  1  0
 47123  1  0
 48124  1  0
 48125  1  0
 48126  1  0
 50127  1  0
 50128  1  0
 51129  1  0
 51130  1  0
 53131  1  0
 53132  1  0
 53133  1  0
 55134  1  0
 55135  1  0
 56136  1  1
 57137  1  0
 57138  1  0
 59139  1  0
 59140  1  0
 60141  1  0
 60142  1  0
 63143  1  0
 63144  1  0
 64145  1  0
 64146  1  0
 65147  1  0
 65148  1  0
 69149  1  0
 70150  1  0
 72151  1  0
M  END
$$$$
