mol_bioactive_32
     RDKit          3D

151157  0  0  0  0  0  0  0  0999 V2000
   -2.6222   -6.7516    2.0211 C   0  0  0  0  0  0  0  0  0  0  0  0
   -3.5117   -6.0593    3.0541 C   0  0  2  0  0  0  0  0  0  0  0  0
   -3.7323   -6.9090    4.1957 O   0  0  0  0  0  0  0  0  0  0  0  0
   -2.6140   -7.0106    5.0611 C   0  0  0  0  0  0  0  0  0  0  0  0
   -4.8748   -5.7368    2.4535 C   0  0  0  0  0  0  0  0  0  0  0  0
   -5.5992   -6.8060    1.9974 N   0  0  0  0  0  0  0  0  0  0  0  0
   -6.8531   -6.5851    1.5570 C   0  0  0  0  0  0  0  0  0  0  0  0
   -7.4485   -5.3410    1.5356 C   0  0  0  0  0  0  0  0  0  0  0  0
   -6.7011   -4.2536    1.9755 C   0  0  0  0  0  0  0  0  0  0  0  0
   -5.3844   -4.4289    2.4196 C   0  0  0  0  0  0  0  0  0  0  0  0
   -4.6142   -3.2451    2.8248 C   0  0  0  0  0  0  0  0  0  0  0  0
   -4.6681   -2.7066    4.1013 N   0  0  0  0  0  0  0  0  0  0  0  0
   -5.4503   -3.2337    5.2140 C   0  0  0  0  0  0  0  0  0  0  0  0
   -6.7910   -2.5347    5.3602 C   0  0  0  0  0  0  0  0  0  0  0  0
   -3.7014   -2.4870    2.0865 C   0  0  0  0  0  0  0  0  0  0  0  0
   -3.2366   -2.6985    0.6612 C   0  0  0  0  0  0  0  0  0  0  0  0
   -3.9795   -1.9368   -0.4769 C   0  0  0  0  0  0  0  0  0  0  0  0
   -3.3263   -2.3596   -1.8130 C   0  0  0  0  0  0  0  0  0  0  0  0
   -5.4583   -2.3595   -0.5353 C   0  0  0  0  0  0  0  0  0  0  0  0
   -3.9351   -0.3937   -0.3258 C   0  0  0  0  0  0  0  0  0  0  0  0
   -2.6893    0.1993   -0.7559 O   0  0  0  0  0  0  0  0  0  0  0  0
   -2.7690    0.9560   -1.9000 C   0  0  0  0  0  0  0  0  0  0  0  0
   -1.4728    1.7387   -2.1462 C   0  0  1  0  0  0  0  0  0  0  0  0
   -0.3023    0.8424   -2.1487 N   0  0  0  0  0  0  0  0  0  0  0  0
    0.8956    1.5792   -2.3716 N   0  0  0  0  0  0  0  0  0  0  0  0
    1.7932    1.9981   -1.3796 C   0  0  0  0  0  0  0  0  0  0  0  0
    1.4647    1.6672    0.0865 C   0  0  1  0  0  0  0  0  0  0  0  0
    2.5842    0.9688    0.6952 N   0  0  0  0  0  0  0  0  0  0  0  0
    2.6408   -0.4071    0.7146 C   0  0  0  0  0  0  0  0  0  0  0  0
    3.9135   -1.0029    1.3726 C   0  0  2  0  0  0  0  0  0  0  0  0
    5.0000   -1.3470    0.3198 C   0  0  0  0  0  0  0  0  0  0  0  0
    6.2891   -1.8270    1.0034 C   0  0  0  0  0  0  0  0  0  0  0  0
    5.3464   -0.1473   -0.5729 C   0  0  0  0  0  0  0  0  0  0  0  0
    3.4805   -2.1367    2.2394 N   0  0  0  0  0  0  0  0  0  0  0  0
    3.0245   -1.7894    3.5149 C   0  0  0  0  0  0  0  0  0  0  0  0
    2.2824   -2.8253    4.3958 C   0  0  0  0  0  0  0  0  0  0  0  0
    0.8656   -3.0744    3.8565 C   0  0  0  0  0  0  0  0  0  0  0  0
    0.0609   -3.9668    4.7971 C   0  0  0  0  0  0  0  0  0  0  0  0
    0.0719   -3.4156    6.1409 N   0  0  0  0  0  0  0  0  0  0  0  0
   -1.1264   -3.1777    6.7973 C   0  0  0  0  0  0  0  0  0  0  0  0
   -1.1082   -2.3016    7.9474 C   0  0  0  0  0  0  0  0  0  0  0  0
   -1.1074   -1.5068    8.8490 C   0  0  0  0  0  0  0  0  0  0  0  0
   -1.1188   -0.4813    9.9202 C   0  0  0  0  0  0  0  0  0  0  0  0
   -1.0399   -1.0804   11.2799 N   0  0  0  0  0  0  0  0  0  0  0  0
    0.1919   -1.8321   11.5382 C   0  0  0  0  0  0  0  0  0  0  0  0
   -2.1947   -1.9100   11.6388 C   0  0  0  0  0  0  0  0  0  0  0  0
   -2.4035    0.3678    9.7680 C   0  0  0  0  0  0  0  0  0  0  0  0
    0.0682    0.4826    9.6827 C   0  0  0  0  0  0  0  0  0  0  0  0
   -2.2085   -3.6270    6.4408 O   0  0  0  0  0  0  0  0  0  0  0  0
    1.3897   -3.2126    6.7263 C   0  0  0  0  0  0  0  0  0  0  0  0
    2.2253   -2.3045    5.8439 C   0  0  0  0  0  0  0  0  0  0  0  0
    3.1691   -0.6309    3.9292 O   0  0  0  0  0  0  0  0  0  0  0  0
    3.2501   -3.4376    1.6117 C   0  0  0  0  0  0  0  0  0  0  0  0
    1.7355   -1.0945    0.2413 O   0  0  0  0  0  0  0  0  0  0  0  0
    1.1148    2.9677    0.8371 C   0  0  0  0  0  0  0  0  0  0  0  0
    0.5996    2.7699    2.2762 C   0  0  1  0  0  0  0  0  0  0  0  0
   -0.4135    1.6162    2.3716 C   0  0  0  0  0  0  0  0  0  0  0  0
   -0.8956    1.4167    3.7508 N   0  0  0  0  0  0  0  0  0  0  0  0
    0.2484    1.2474    4.6858 C   0  0  0  0  0  0  0  0  0  0  0  0
    1.2665    2.3918    4.5081 C   0  0  0  0  0  0  0  0  0  0  0  0
    1.7191    2.5262    3.1472 O   0  0  0  0  0  0  0  0  0  0  0  0
    2.8121    2.6464   -1.6467 O   0  0  0  0  0  0  0  0  0  0  0  0
    0.9660    2.1661   -3.7112 C   0  0  0  0  0  0  0  0  0  0  0  0
   -0.1995    3.1439   -3.8670 C   0  0  0  0  0  0  0  0  0  0  0  0
   -1.5309    2.4671   -3.5072 C   0  0  0  0  0  0  0  0  0  0  0  0
   -3.7743    1.0649   -2.5945 O   0  0  0  0  0  0  0  0  0  0  0  0
   -3.1824   -1.4920    2.9785 C   0  0  0  0  0  0  0  0  0  0  0  0
   -3.8153   -1.6257    4.2068 C   0  0  0  0  0  0  0  0  0  0  0  0
   -3.5244   -0.7660    5.2792 C   0  0  0  0  0  0  0  0  0  0  0  0
   -2.5542    0.2310    5.0937 C   0  0  0  0  0  0  0  0  0  0  0  0
   -1.8657    0.3903    3.8876 C   0  0  0  0  0  0  0  0  0  0  0  0
   -2.2062   -0.4835    2.8357 C   0  0  0  0  0  0  0  0  0  0  0  0
    2.9480   -4.0230    4.4419 F   0  0  0  0  0  0  0  0  0  0  0  0
   -1.6108   -6.8997    2.4134 H   0  0  0  0  0  0  0  0  0  0  0  0
   -3.0068   -7.7455    1.7639 H   0  0  0  0  0  0  0  0  0  0  0  0
   -2.5432   -6.1604    1.1022 H   0  0  0  0  0  0  0  0  0  0  0  0
   -3.0122   -5.1458    3.3920 H   0  0  0  0  0  0  0  0  0  0  0  0
   -2.9273   -7.5488    5.9607 H   0  0  0  0  0  0  0  0  0  0  0  0
   -1.8079   -7.5796    4.5895 H   0  0  0  0  0  0  0  0  0  0  0  0
   -2.2543   -6.0230    5.3597 H   0  0  0  0  0  0  0  0  0  0  0  0
   -7.3844   -7.4694    1.2174 H   0  0  0  0  0  0  0  0  0  0  0  0
   -8.4648   -5.2169    1.1817 H   0  0  0  0  0  0  0  0  0  0  0  0
   -7.1463   -3.2625    1.9588 H   0  0  0  0  0  0  0  0  0  0  0  0
   -5.5887   -4.3090    5.0707 H   0  0  0  0  0  0  0  0  0  0  0  0
   -4.8602   -3.1151    6.1282 H   0  0  0  0  0  0  0  0  0  0  0  0
   -7.3445   -2.9516    6.2077 H   0  0  0  0  0  0  0  0  0  0  0  0
   -6.6641   -1.4597    5.5330 H   0  0  0  0  0  0  0  0  0  0  0  0
   -7.4059   -2.6549    4.4623 H   0  0  0  0  0  0  0  0  0  0  0  0
   -2.1682   -2.4458    0.6140 H   0  0  0  0  0  0  0  0  0  0  0  0
   -3.2778   -3.7762    0.4521 H   0  0  0  0  0  0  0  0  0  0  0  0
   -2.2555   -2.1285   -1.8287 H   0  0  0  0  0  0  0  0  0  0  0  0
   -3.4290   -3.4381   -1.9773 H   0  0  0  0  0  0  0  0  0  0  0  0
   -3.7951   -1.8509   -2.6627 H   0  0  0  0  0  0  0  0  0  0  0  0
   -6.0116   -1.9832    0.3302 H   0  0  0  0  0  0  0  0  0  0  0  0
   -5.9490   -1.9544   -1.4282 H   0  0  0  0  0  0  0  0  0  0  0  0
   -5.5590   -3.4483   -0.5803 H   0  0  0  0  0  0  0  0  0  0  0  0
   -4.7829    0.0543   -0.8593 H   0  0  0  0  0  0  0  0  0  0  0  0
   -4.0884   -0.0939    0.7142 H   0  0  0  0  0  0  0  0  0  0  0  0
   -1.3876    2.4780   -1.3400 H   0  0  0  0  0  0  0  0  0  0  0  0
   -0.2611    0.2180   -1.3402 H   0  0  0  0  0  0  0  0  0  0  0  0
    0.6039    1.0074    0.1192 H   0  0  0  0  0  0  0  0  0  0  0  0
    3.3701    1.5213    1.0244 H   0  0  0  0  0  0  0  0  0  0  0  0
    4.3351   -0.2255    2.0232 H   0  0  0  0  0  0  0  0  0  0  0  0
    4.6388   -2.1415   -0.3436 H   0  0  0  0  0  0  0  0  0  0  0  0
    6.1180   -2.7085    1.6267 H   0  0  0  0  0  0  0  0  0  0  0  0
    7.0443   -2.0960    0.2569 H   0  0  0  0  0  0  0  0  0  0  0  0
    6.7129   -1.0429    1.6416 H   0  0  0  0  0  0  0  0  0  0  0  0
    5.6474    0.7205    0.0251 H   0  0  0  0  0  0  0  0  0  0  0  0
    6.1715   -0.3911   -1.2512 H   0  0  0  0  0  0  0  0  0  0  0  0
    4.4957    0.1414   -1.1976 H   0  0  0  0  0  0  0  0  0  0  0  0
    0.3491   -2.1155    3.7320 H   0  0  0  0  0  0  0  0  0  0  0  0
    0.8886   -3.5492    2.8719 H   0  0  0  0  0  0  0  0  0  0  0  0
   -0.9633   -4.0584    4.4195 H   0  0  0  0  0  0  0  0  0  0  0  0
    0.4903   -4.9747    4.8420 H   0  0  0  0  0  0  0  0  0  0  0  0
    0.2079   -2.1919   12.5740 H   0  0  0  0  0  0  0  0  0  0  0  0
    0.2997   -2.7023   10.8816 H   0  0  0  0  0  0  0  0  0  0  0  0
    1.0819   -1.2049   11.4394 H   0  0  0  0  0  0  0  0  0  0  0  0
   -2.1000   -2.2685   12.6716 H   0  0  0  0  0  0  0  0  0  0  0  0
   -3.1298   -1.3409   11.6192 H   0  0  0  0  0  0  0  0  0  0  0  0
   -2.3020   -2.7867   10.9891 H   0  0  0  0  0  0  0  0  0  0  0  0
   -2.5062    1.0822   10.5941 H   0  0  0  0  0  0  0  0  0  0  0  0
   -2.3897    0.9452    8.8347 H   0  0  0  0  0  0  0  0  0  0  0  0
   -3.3104   -0.2474    9.7307 H   0  0  0  0  0  0  0  0  0  0  0  0
    0.1492    1.2168   10.4933 H   0  0  0  0  0  0  0  0  0  0  0  0
    1.0260   -0.0442    9.5993 H   0  0  0  0  0  0  0  0  0  0  0  0
   -0.0536    1.0393    8.7444 H   0  0  0  0  0  0  0  0  0  0  0  0
    1.3263   -2.8023    7.7372 H   0  0  0  0  0  0  0  0  0  0  0  0
    1.8591   -4.1996    6.8163 H   0  0  0  0  0  0  0  0  0  0  0  0
    3.2395   -2.2406    6.2564 H   0  0  0  0  0  0  0  0  0  0  0  0
    1.7970   -1.2956    5.8775 H   0  0  0  0  0  0  0  0  0  0  0  0
    3.0045   -4.2149    2.3316 H   0  0  0  0  0  0  0  0  0  0  0  0
    2.4261   -3.3615    0.8970 H   0  0  0  0  0  0  0  0  0  0  0  0
    4.1513   -3.7683    1.0893 H   0  0  0  0  0  0  0  0  0  0  0  0
    1.9932    3.6271    0.8590 H   0  0  0  0  0  0  0  0  0  0  0  0
    0.3379    3.4940    0.2674 H   0  0  0  0  0  0  0  0  0  0  0  0
    0.1300    3.7088    2.5996 H   0  0  0  0  0  0  0  0  0  0  0  0
   -1.2517    1.8295    1.6967 H   0  0  0  0  0  0  0  0  0  0  0  0
    0.0865    0.6890    2.0719 H   0  0  0  0  0  0  0  0  0  0  0  0
   -0.0808    1.2341    5.7300 H   0  0  0  0  0  0  0  0  0  0  0  0
    0.7424    0.2953    4.4655 H   0  0  0  0  0  0  0  0  0  0  0  0
    0.8352    3.3473    4.8302 H   0  0  0  0  0  0  0  0  0  0  0  0
    2.1474    2.1993    5.1291 H   0  0  0  0  0  0  0  0  0  0  0  0
    1.9173    2.6819   -3.8692 H   0  0  0  0  0  0  0  0  0  0  0  0
    0.8954    1.3540   -4.4442 H   0  0  0  0  0  0  0  0  0  0  0  0
   -0.0483    4.0009   -3.1992 H   0  0  0  0  0  0  0  0  0  0  0  0
   -0.2374    3.5307   -4.8908 H   0  0  0  0  0  0  0  0  0  0  0  0
   -1.7911    1.7556   -4.3028 H   0  0  0  0  0  0  0  0  0  0  0  0
   -2.3286    3.2211   -3.4934 H   0  0  0  0  0  0  0  0  0  0  0  0
   -4.0239   -0.8687    6.2374 H   0  0  0  0  0  0  0  0  0  0  0  0
   -2.3532    0.9059    5.9217 H   0  0  0  0  0  0  0  0  0  0  0  0
   -1.7190   -0.4262    1.8716 H   0  0  0  0  0  0  0  0  0  0  0  0
  1  2  1  0
  2  3  1  0
  2  5  1  0
  3  4  1  0
  5  6  2  0
  5 10  1  0
  6  7  1  0
  7  8  2  0
  8  9  1  0
  9 10  2  0
 10 11  1  0
 11 12  1  0
 11 15  2  0
 12 13  1  0
 12 68  1  0
 13 14  1  0
 15 16  1  0
 15 67  1  0
 16 17  1  0
 17 18  1  0
 17 19  1  0
 17 20  1  0
 20 21  1  0
 21 22  1  0
 22 23  1  0
 22 66  2  0
 23 24  1  0
 23 65  1  0
 24 25  1  0
 25 26  1  0
 25 63  1  0
 26 27  1  0
 26 62  2  0
 27 28  1  0
 27 55  1  0
 28 29  1  0
 29 30  1  0
 29 54  2  0
 30 31  1  0
 30 34  1  0
 31 32  1  0
 31 33  1  0
 34 35  1  0
 34 53  1  0
 35 36  1  0
 35 52  2  0
 36 37  1  0
 36 51  1  0
 36 73  1  0
 37 38  1  0
 38 39  1  0
 39 40  1  0
 39 50  1  0
 40 41  1  0
 40 49  2  0
 42 43  1  0
 43 44  1  0
 43 47  1  0
 43 48  1  0
 44 45  1  0
 44 46  1  0
 50 51  1  0
 55 56  1  0
 56 57  1  0
 56 61  1  0
 57 58  1  0
 58 59  1  0
 58 71  1  0
 59 60  1  0
 60 61  1  0
 63 64  1  0
 64 65  1  0
 67 68  2  0
 67 72  1  0
 68 69  1  0
 69 70  2  0
 70 71  1  0
 71 72  2  0
 41 42  3  0
  1 74  1  0
  1 75  1  0
  1 76  1  0
  2 77  1  1
  4 78  1  0
  4 79  1  0
  4 80  1  0
  7 81  1  0
  8 82  1  0
  9 83  1  0
 13 84  1  0
 13 85  1  0
 14 86  1  0
 14 87  1  0
 14 88  1  0
 16 89  1  0
 16 90  1  0
 18 91  1  0
 18 92  1  0
 18 93  1  0
 19 94  1  0
 19 95  1  0
 19 96  1  0
 20 97  1  0
 20 98  1  0
 23 99  1  1
 24100  1  0
 27101  1  6
 28102  1  0
 30103  1  1
 31104  1  0
 32105  1  0
 32106  1  0
 32107  1  0
 33108  1  0
 33109  1  0
 33110  1  0
 37111  1  0
 37112  1  0
 38113  1  0
 38114  1  0
 45115  1  0
 45116  1  0
 45117  1  0
 46118  1  0
 46119  1  0
 46120  1  0
 47121  1  0
 47122  1  0
 47123  1  0
 48124  1  0
 48125  1  0
 48126  1  0
 50127  1  0
 50128  1  0
 51129  1  0
 51130  1  0
 53131  1  0
 53132  1  0
 53133  1  0
 55134  1  0
 55135  1  0
 56136  1  1
 57137  1  0
 57138  1  0
 59139  1  0
 59140  1  0
 60141  1  0
 60142  1  0
 63143  1  0
 63144  1  0
 64145  1  0
 64146  1  0
 65147  1  0
 65148  1  0
 69149  1  0
 70150  1  0
 72151  1  0
M  END
$$$$
