mol_bioactive_8
     RDKit          3D

151157  0  0  0  0  0  0  0  0999 V2000
   -5.2047   -4.2869   -1.6386 C   0  0  0  0  0  0  0  0  0  0  0  0
   -4.8569   -3.4642   -2.8751 C   0  0  2  0  0  0  0  0  0  0  0  0
   -6.1135   -2.9965   -3.4065 O   0  0  0  0  0  0  0  0  0  0  0  0
   -6.0521   -1.6548   -3.8751 C   0  0  0  0  0  0  0  0  0  0  0  0
   -4.1068   -4.3174   -3.8968 C   0  0  0  0  0  0  0  0  0  0  0  0
   -4.8727   -5.1242   -4.6920 N   0  0  0  0  0  0  0  0  0  0  0  0
   -4.2554   -5.8846   -5.6184 C   0  0  0  0  0  0  0  0  0  0  0  0
   -2.8891   -5.9023   -5.8043 C   0  0  0  0  0  0  0  0  0  0  0  0
   -2.1079   -5.0945   -4.9863 C   0  0  0  0  0  0  0  0  0  0  0  0
   -2.7039   -4.2972   -4.0007 C   0  0  0  0  0  0  0  0  0  0  0  0
   -1.8409   -3.4795   -3.1367 C   0  0  0  0  0  0  0  0  0  0  0  0
   -1.4438   -2.1882   -3.4595 N   0  0  0  0  0  0  0  0  0  0  0  0
   -1.7413   -1.4946   -4.7054 C   0  0  0  0  0  0  0  0  0  0  0  0
   -0.6370   -1.6669   -5.7342 C   0  0  0  0  0  0  0  0  0  0  0  0
   -1.2838   -3.7928   -1.8979 C   0  0  0  0  0  0  0  0  0  0  0  0
   -1.3695   -5.0956   -1.1308 C   0  0  0  0  0  0  0  0  0  0  0  0
   -0.1496   -6.0638   -1.2099 C   0  0  0  0  0  0  0  0  0  0  0  0
   -0.5715   -7.3863   -0.5267 C   0  0  0  0  0  0  0  0  0  0  0  0
    0.1945   -6.3922   -2.6751 C   0  0  0  0  0  0  0  0  0  0  0  0
    1.1363   -5.5157   -0.5327 C   0  0  0  0  0  0  0  0  0  0  0  0
    1.0748   -5.4974    0.9107 O   0  0  0  0  0  0  0  0  0  0  0  0
    1.8192   -6.4679    1.5428 C   0  0  0  0  0  0  0  0  0  0  0  0
    1.8789   -6.2411    3.0635 C   0  0  1  0  0  0  0  0  0  0  0  0
    0.5671   -5.8247    3.5935 N   0  0  0  0  0  0  0  0  0  0  0  0
    0.6349   -5.5821    4.9991 N   0  0  0  0  0  0  0  0  0  0  0  0
    0.1984   -4.4128    5.6422 C   0  0  0  0  0  0  0  0  0  0  0  0
    0.0618   -3.1393    4.7829 C   0  0  1  0  0  0  0  0  0  0  0  0
   -0.9713   -2.2551    5.3005 N   0  0  0  0  0  0  0  0  0  0  0  0
   -2.2683   -2.3361    4.8400 C   0  0  0  0  0  0  0  0  0  0  0  0
   -3.2592   -1.3129    5.4601 C   0  0  2  0  0  0  0  0  0  0  0  0
   -3.9934   -1.8847    6.7011 C   0  0  0  0  0  0  0  0  0  0  0  0
   -4.8847   -0.8124    7.3463 C   0  0  0  0  0  0  0  0  0  0  0  0
   -3.0231   -2.4048    7.7691 C   0  0  0  0  0  0  0  0  0  0  0  0
   -4.1488   -0.8366    4.3598 N   0  0  0  0  0  0  0  0  0  0  0  0
   -3.6182    0.1702    3.5423 C   0  0  0  0  0  0  0  0  0  0  0  0
   -4.2742    0.5010    2.1793 C   0  0  0  0  0  0  0  0  0  0  0  0
   -3.9768   -0.6149    1.1709 C   0  0  0  0  0  0  0  0  0  0  0  0
   -4.4916   -0.2609   -0.2187 C   0  0  0  0  0  0  0  0  0  0  0  0
   -3.9955    1.0350   -0.6481 N   0  0  0  0  0  0  0  0  0  0  0  0
   -3.6180    1.2055   -1.9762 C   0  0  0  0  0  0  0  0  0  0  0  0
   -3.0456    2.4731   -2.3698 C   0  0  0  0  0  0  0  0  0  0  0  0
   -2.5296    3.5123   -2.6921 C   0  0  0  0  0  0  0  0  0  0  0  0
   -1.8810    4.7961   -3.0668 C   0  0  0  0  0  0  0  0  0  0  0  0
   -2.9282    5.7270   -3.5686 N   0  0  0  0  0  0  0  0  0  0  0  0
   -2.4991    7.1204   -3.6971 C   0  0  0  0  0  0  0  0  0  0  0  0
   -3.5500    5.2969   -4.8301 C   0  0  0  0  0  0  0  0  0  0  0  0
   -1.2226    5.3356   -1.7721 C   0  0  0  0  0  0  0  0  0  0  0  0
   -0.7600    4.5000   -4.0863 C   0  0  0  0  0  0  0  0  0  0  0  0
   -3.7104    0.3351   -2.8348 O   0  0  0  0  0  0  0  0  0  0  0  0
   -4.2596    2.1456    0.2616 C   0  0  0  0  0  0  0  0  0  0  0  0
   -3.7361    1.8430    1.6540 C   0  0  0  0  0  0  0  0  0  0  0  0
   -2.5824    0.7634    3.8796 O   0  0  0  0  0  0  0  0  0  0  0  0
   -5.3023   -1.6623    3.9990 C   0  0  0  0  0  0  0  0  0  0  0  0
   -2.5985   -3.1576    3.9841 O   0  0  0  0  0  0  0  0  0  0  0  0
    1.4358   -2.4418    4.7071 C   0  0  0  0  0  0  0  0  0  0  0  0
    1.5331   -1.2893    3.6909 C   0  0  1  0  0  0  0  0  0  0  0  0
    0.9423   -1.6914    2.3320 C   0  0  0  0  0  0  0  0  0  0  0  0
    0.9809   -0.5942    1.3414 N   0  0  0  0  0  0  0  0  0  0  0  0
    0.3809    0.6440    1.9079 C   0  0  0  0  0  0  0  0  0  0  0  0
    0.9807    0.9636    3.2891 C   0  0  0  0  0  0  0  0  0  0  0  0
    0.8660   -0.1322    4.2139 O   0  0  0  0  0  0  0  0  0  0  0  0
    0.0376   -4.3558    6.8664 O   0  0  0  0  0  0  0  0  0  0  0  0
    0.9474   -6.7806    5.7841 C   0  0  0  0  0  0  0  0  0  0  0  0
    2.2722   -7.3722    5.3084 C   0  0  0  0  0  0  0  0  0  0  0  0
    2.3010   -7.5341    3.7845 C   0  0  0  0  0  0  0  0  0  0  0  0
    2.4287   -7.3613    0.9666 O   0  0  0  0  0  0  0  0  0  0  0  0
   -0.6946   -2.5838   -1.4081 C   0  0  0  0  0  0  0  0  0  0  0  0
   -0.7634   -1.6183   -2.4019 C   0  0  0  0  0  0  0  0  0  0  0  0
   -0.2040   -0.3424   -2.2197 C   0  0  0  0  0  0  0  0  0  0  0  0
    0.3845   -0.0383   -0.9783 C   0  0  0  0  0  0  0  0  0  0  0  0
    0.4166   -0.9497    0.0823 C   0  0  0  0  0  0  0  0  0  0  0  0
   -0.1091   -2.2314   -0.1750 C   0  0  0  0  0  0  0  0  0  0  0  0
   -5.6330    0.6466    2.2878 F   0  0  0  0  0  0  0  0  0  0  0  0
   -5.7470   -3.6661   -0.9154 H   0  0  0  0  0  0  0  0  0  0  0  0
   -5.8672   -5.1262   -1.8902 H   0  0  0  0  0  0  0  0  0  0  0  0
   -4.3203   -4.6919   -1.1432 H   0  0  0  0  0  0  0  0  0  0  0  0
   -4.2541   -2.6035   -2.5707 H   0  0  0  0  0  0  0  0  0  0  0  0
   -5.9708   -0.9720   -3.0228 H   0  0  0  0  0  0  0  0  0  0  0  0
   -5.2125   -1.5102   -4.5633 H   0  0  0  0  0  0  0  0  0  0  0  0
   -6.9765   -1.4261   -4.4041 H   0  0  0  0  0  0  0  0  0  0  0  0
   -4.9146   -6.4990   -6.2260 H   0  0  0  0  0  0  0  0  0  0  0  0
   -2.4378   -6.5308   -6.5655 H   0  0  0  0  0  0  0  0  0  0  0  0
   -1.0289   -5.0946   -5.1098 H   0  0  0  0  0  0  0  0  0  0  0  0
   -2.6943   -1.8594   -5.0946 H   0  0  0  0  0  0  0  0  0  0  0  0
   -1.8784   -0.4313   -4.4807 H   0  0  0  0  0  0  0  0  0  0  0  0
    0.3136   -1.2626   -5.3673 H   0  0  0  0  0  0  0  0  0  0  0  0
   -0.4770   -2.7198   -5.9800 H   0  0  0  0  0  0  0  0  0  0  0  0
   -0.8954   -1.1397   -6.6583 H   0  0  0  0  0  0  0  0  0  0  0  0
   -1.5803   -4.8670   -0.0763 H   0  0  0  0  0  0  0  0  0  0  0  0
   -2.2565   -5.6356   -1.4878 H   0  0  0  0  0  0  0  0  0  0  0  0
   -0.8757   -7.2225    0.5126 H   0  0  0  0  0  0  0  0  0  0  0  0
   -1.4204   -7.8463   -1.0466 H   0  0  0  0  0  0  0  0  0  0  0  0
    0.2467   -8.1152   -0.5323 H   0  0  0  0  0  0  0  0  0  0  0  0
    0.9935   -7.1420   -2.7353 H   0  0  0  0  0  0  0  0  0  0  0  0
   -0.6718   -6.8079   -3.2002 H   0  0  0  0  0  0  0  0  0  0  0  0
    0.5442   -5.5057   -3.2162 H   0  0  0  0  0  0  0  0  0  0  0  0
    2.0110   -6.0864   -0.8724 H   0  0  0  0  0  0  0  0  0  0  0  0
    1.3398   -4.4927   -0.8580 H   0  0  0  0  0  0  0  0  0  0  0  0
    2.6229   -5.4524    3.2367 H   0  0  0  0  0  0  0  0  0  0  0  0
    0.1698   -5.0665    3.0415 H   0  0  0  0  0  0  0  0  0  0  0  0
   -0.2631   -3.4461    3.7946 H   0  0  0  0  0  0  0  0  0  0  0  0
   -0.7471   -1.6638    6.0929 H   0  0  0  0  0  0  0  0  0  0  0  0
   -2.6617   -0.4564    5.8036 H   0  0  0  0  0  0  0  0  0  0  0  0
   -4.6233   -2.7329    6.4049 H   0  0  0  0  0  0  0  0  0  0  0  0
   -5.3959   -1.2121    8.2279 H   0  0  0  0  0  0  0  0  0  0  0  0
   -4.2936    0.0514    7.6656 H   0  0  0  0  0  0  0  0  0  0  0  0
   -5.6561   -0.4519    6.6598 H   0  0  0  0  0  0  0  0  0  0  0  0
   -3.5675   -2.7330    8.6616 H   0  0  0  0  0  0  0  0  0  0  0  0
   -2.4609   -3.2692    7.4061 H   0  0  0  0  0  0  0  0  0  0  0  0
   -2.3132   -1.6291    8.0761 H   0  0  0  0  0  0  0  0  0  0  0  0
   -2.8938   -0.7895    1.1258 H   0  0  0  0  0  0  0  0  0  0  0  0
   -4.4348   -1.5621    1.4712 H   0  0  0  0  0  0  0  0  0  0  0  0
   -4.1853   -1.0403   -0.9213 H   0  0  0  0  0  0  0  0  0  0  0  0
   -5.5867   -0.2204   -0.2296 H   0  0  0  0  0  0  0  0  0  0  0  0
   -2.2347    7.5497   -2.7266 H   0  0  0  0  0  0  0  0  0  0  0  0
   -1.6514    7.2383   -4.3808 H   0  0  0  0  0  0  0  0  0  0  0  0
   -3.3208    7.7439   -4.0714 H   0  0  0  0  0  0  0  0  0  0  0  0
   -3.9321    4.2723   -4.7757 H   0  0  0  0  0  0  0  0  0  0  0  0
   -4.4193    5.9275   -5.0504 H   0  0  0  0  0  0  0  0  0  0  0  0
   -2.8652    5.3689   -5.6807 H   0  0  0  0  0  0  0  0  0  0  0  0
   -1.9768    5.5936   -1.0172 H   0  0  0  0  0  0  0  0  0  0  0  0
   -0.5667    4.5809   -1.3183 H   0  0  0  0  0  0  0  0  0  0  0  0
   -0.6037    6.2213   -1.9586 H   0  0  0  0  0  0  0  0  0  0  0  0
   -0.0112    3.8201   -3.6578 H   0  0  0  0  0  0  0  0  0  0  0  0
   -1.1398    4.0074   -4.9855 H   0  0  0  0  0  0  0  0  0  0  0  0
   -0.2320    5.4092   -4.3880 H   0  0  0  0  0  0  0  0  0  0  0  0
   -3.8181    3.0771   -0.0982 H   0  0  0  0  0  0  0  0  0  0  0  0
   -5.3474    2.2965    0.2830 H   0  0  0  0  0  0  0  0  0  0  0  0
   -4.0297    2.6527    2.3339 H   0  0  0  0  0  0  0  0  0  0  0  0
   -2.6389    1.8308    1.6204 H   0  0  0  0  0  0  0  0  0  0  0  0
   -5.9503   -1.7977    4.8654 H   0  0  0  0  0  0  0  0  0  0  0  0
   -5.9138   -1.2150    3.2204 H   0  0  0  0  0  0  0  0  0  0  0  0
   -4.9631   -2.6380    3.6466 H   0  0  0  0  0  0  0  0  0  0  0  0
    1.7025   -2.0646    5.7031 H   0  0  0  0  0  0  0  0  0  0  0  0
    2.1960   -3.1892    4.4436 H   0  0  0  0  0  0  0  0  0  0  0  0
    2.5968   -1.0317    3.5729 H   0  0  0  0  0  0  0  0  0  0  0  0
    1.5019   -2.5614    1.9669 H   0  0  0  0  0  0  0  0  0  0  0  0
   -0.1124   -1.9462    2.4738 H   0  0  0  0  0  0  0  0  0  0  0  0
    0.5572    1.5067    1.2567 H   0  0  0  0  0  0  0  0  0  0  0  0
   -0.7003    0.4989    2.0125 H   0  0  0  0  0  0  0  0  0  0  0  0
    2.0390    1.2349    3.2007 H   0  0  0  0  0  0  0  0  0  0  0  0
    0.4602    1.8221    3.7292 H   0  0  0  0  0  0  0  0  0  0  0  0
    1.0071   -6.5442    6.8506 H   0  0  0  0  0  0  0  0  0  0  0  0
    0.1258   -7.4938    5.6445 H   0  0  0  0  0  0  0  0  0  0  0  0
    3.0906   -6.7049    5.6050 H   0  0  0  0  0  0  0  0  0  0  0  0
    2.4515   -8.3374    5.7938 H   0  0  0  0  0  0  0  0  0  0  0  0
    1.6349   -8.3592    3.4967 H   0  0  0  0  0  0  0  0  0  0  0  0
    3.3114   -7.8270    3.4722 H   0  0  0  0  0  0  0  0  0  0  0  0
   -0.2310    0.4048   -3.0061 H   0  0  0  0  0  0  0  0  0  0  0  0
    0.8291    0.9461   -0.8617 H   0  0  0  0  0  0  0  0  0  0  0  0
   -0.1148   -3.0063    0.5795 H   0  0  0  0  0  0  0  0  0  0  0  0
  1  2  1  0
  2  3  1  0
  2  5  1  0
  3  4  1  0
  5  6  2  0
  5 10  1  0
  6  7  1  0
  7  8  2  0
  8  9  1  0
  9 10  2  0
 10 11  1  0
 11 12  1  0
 11 15  2  0
 12 13  1  0
 12 68  1  0
 13 14  1  0
 15 16  1  0
 15 67  1  0
 16 17  1  0
 17 18  1  0
 17 19  1  0
 17 20  1  0
 20 21  1  0
 21 22  1  0
 22 23  1  0
 22 66  2  0
 23 24  1  0
 23 65  1  0
 24 25  1  0
 25 26  1  0
 25 63  1  0
 26 27  1  0
 26 62  2  0
 27 28  1  0
 27 55  1  0
 28 29  1  0
 29 30  1  0
 29 54  2  0
 30 31  1  0
 30 34  1  0
 31 32  1  0
 31 33  1  0
 34 35  1  0
 34 53  1  0
 35 36  1  0
 35 52  2  0
 36 37  1  0
 36 51  1  0
 36 73  1  0
 37 38  1  0
 38 39  1  0
 39 40  1  0
 39 50  1  0
 40 41  1  0
 40 49  2  0
 42 43  1  0
 43 44  1  0
 43 47  1  0
 43 48  1  0
 44 45  1  0
 44 46  1  0
 50 51  1  0
 55 56  1  0
 56 57  1  0
 56 61  1  0
 57 58  1  0
 58 59  1  0
 58 71  1  0
 59 60  1  0
 60 61  1  0
 63 64  1  0
 64 65  1  0
 67 68  2  0
 67 72  1  0
 68 69  1  0
 69 70  2  0
 70 71  1  0
 71 72  2  0
 41 42  3  0
  1 74  1  0
  1 75  1  0
  1 76  1  0
  2 77  1  1
  4 78  1  0
  4 79  1  0
  4 80  1  0
  7 81  1  0
  8 82  1  0
  9 83  1  0
 13 84  1  0
 13 85  1  0
 14 86  1  0
 14 87  1  0
 14 88  1  0
 16 89  1  0
 16 90  1  0
 18 91  1  0
 18 92  1  0
 18 93  1  0
 19 94  1  0
 19 95  1  0
 19 96  1  0
 20 97  1  0
 20 98  1  0
 23 99  1  6
 24100  1  0
 27101  1  6
 28102  1  0
 30103  1  1
 31104  1  0
 32105  1  0
 32106  1  0
 32107  1  0
 33108  1  0
 33109  1  0
 33110  1  0
 37111  1  0
 37112  1  0
 38113  1  0
 38114  1  0
 45115  1  0
 45116  1  0
 45117  1  0
 46118  1  0
 46119  1  0
 46120  1  0
 47121  1  0
 47122  1  0
 47123  1  0
 48124  1  0
 48125  1  0
 48126  1  0
 50127  1  0
 50128  1  0
 51129  1  0
 51130  1  0
 53131  1  0
 53132  1  0
 53133  1  0
 55134  1  0
 55135  1  0
 56136  1  6
 57137  1  0
 57138  1  0
 59139  1  0
 59140  1  0
 60141  1  0
 60142  1  0
 63143  1  0
 63144  1  0
 64145  1  0
 64146  1  0
 65147  1  0
 65148  1  0
 69149  1  0
 70150  1  0
 72151  1  0
M  END
$$$$
