mol_bioactive_5
     RDKit          3D

151157  0  0  0  0  0  0  0  0999 V2000
    3.9752    2.1481   -0.2551 C   0  0  0  0  0  0  0  0  0  0  0  0
    4.3458    0.7480   -0.7256 C   0  0  2  0  0  0  0  0  0  0  0  0
    3.2291    0.1235   -1.3712 O   0  0  0  0  0  0  0  0  0  0  0  0
    3.1698    0.3884   -2.7638 C   0  0  0  0  0  0  0  0  0  0  0  0
    4.9244   -0.1137    0.3926 C   0  0  0  0  0  0  0  0  0  0  0  0
    6.2705   -0.3407    0.2559 N   0  0  0  0  0  0  0  0  0  0  0  0
    6.9024   -1.0763    1.1925 C   0  0  0  0  0  0  0  0  0  0  0  0
    6.2712   -1.6101    2.2939 C   0  0  0  0  0  0  0  0  0  0  0  0
    4.9097   -1.3723    2.4405 C   0  0  0  0  0  0  0  0  0  0  0  0
    4.2007   -0.6149    1.4921 C   0  0  0  0  0  0  0  0  0  0  0  0
    2.7605   -0.4107    1.7123 C   0  0  0  0  0  0  0  0  0  0  0  0
    2.2380    0.4743    2.6492 N   0  0  0  0  0  0  0  0  0  0  0  0
    2.9710    1.1473    3.7133 C   0  0  0  0  0  0  0  0  0  0  0  0
    3.3770    2.5730    3.3964 C   0  0  0  0  0  0  0  0  0  0  0  0
    1.6748   -1.0619    1.1194 C   0  0  0  0  0  0  0  0  0  0  0  0
    1.6924   -2.1909    0.1090 C   0  0  0  0  0  0  0  0  0  0  0  0
    1.6040   -3.6462    0.6569 C   0  0  0  0  0  0  0  0  0  0  0  0
    2.8017   -3.9511    1.5775 C   0  0  0  0  0  0  0  0  0  0  0  0
    1.6944   -4.6033   -0.5531 C   0  0  0  0  0  0  0  0  0  0  0  0
    0.3091   -3.9483    1.4537 C   0  0  0  0  0  0  0  0  0  0  0  0
   -0.8493   -4.1133    0.6075 O   0  0  0  0  0  0  0  0  0  0  0  0
   -1.7251   -5.0815    1.0295 C   0  0  0  0  0  0  0  0  0  0  0  0
   -2.9574   -5.2166    0.1274 C   0  0  1  0  0  0  0  0  0  0  0  0
   -2.6959   -4.7859   -1.2566 N   0  0  0  0  0  0  0  0  0  0  0  0
   -3.8709   -4.8864   -2.0509 N   0  0  0  0  0  0  0  0  0  0  0  0
   -4.7108   -3.8209   -2.4082 C   0  0  0  0  0  0  0  0  0  0  0  0
   -4.4281   -2.4448   -1.7764 C   0  0  1  0  0  0  0  0  0  0  0  0
   -4.5328   -1.3853   -2.7654 N   0  0  0  0  0  0  0  0  0  0  0  0
   -3.4299   -0.9834   -3.4871 C   0  0  0  0  0  0  0  0  0  0  0  0
   -3.6895    0.1579   -4.5033 C   0  0  2  0  0  0  0  0  0  0  0  0
   -3.8530   -0.3964   -5.9433 C   0  0  0  0  0  0  0  0  0  0  0  0
   -4.9348   -1.4823   -6.0224 C   0  0  0  0  0  0  0  0  0  0  0  0
   -4.2239    0.7249   -6.9225 C   0  0  0  0  0  0  0  0  0  0  0  0
   -2.6075    1.1677   -4.3204 N   0  0  0  0  0  0  0  0  0  0  0  0
   -2.8066    2.0980   -3.2949 C   0  0  0  0  0  0  0  0  0  0  0  0
   -1.6467    3.0069   -2.8178 C   0  0  0  0  0  0  0  0  0  0  0  0
   -2.2149    4.1595   -1.9745 C   0  0  0  0  0  0  0  0  0  0  0  0
   -1.1138    5.0054   -1.3585 C   0  0  0  0  0  0  0  0  0  0  0  0
   -0.1639    4.1799   -0.6236 N   0  0  0  0  0  0  0  0  0  0  0  0
    0.5239    4.6512    0.4924 C   0  0  0  0  0  0  0  0  0  0  0  0
   -0.0876    5.6896    1.2923 C   0  0  0  0  0  0  0  0  0  0  0  0
   -0.5877    6.5046    2.0230 C   0  0  0  0  0  0  0  0  0  0  0  0
   -1.2074    7.4730    2.9663 C   0  0  0  0  0  0  0  0  0  0  0  0
   -0.1918    8.4866    3.3521 N   0  0  0  0  0  0  0  0  0  0  0  0
   -0.7283    9.6579    4.0484 C   0  0  0  0  0  0  0  0  0  0  0  0
    0.9278    7.9397    4.1284 C   0  0  0  0  0  0  0  0  0  0  0  0
   -1.7836    6.6802    4.1609 C   0  0  0  0  0  0  0  0  0  0  0  0
   -2.3901    8.1195    2.2058 C   0  0  0  0  0  0  0  0  0  0  0  0
    1.6023    4.2111    0.8715 O   0  0  0  0  0  0  0  0  0  0  0  0
    0.4214    3.0735   -1.3672 C   0  0  0  0  0  0  0  0  0  0  0  0
   -0.6480    2.1890   -1.9926 C   0  0  0  0  0  0  0  0  0  0  0  0
   -3.9022    2.1633   -2.7233 O   0  0  0  0  0  0  0  0  0  0  0  0
   -1.3241    0.9314   -4.9825 C   0  0  0  0  0  0  0  0  0  0  0  0
   -2.3273   -1.5048   -3.3239 O   0  0  0  0  0  0  0  0  0  0  0  0
   -5.3982   -2.2251   -0.5988 C   0  0  0  0  0  0  0  0  0  0  0  0
   -5.0616   -1.0257    0.3066 C   0  0  1  0  0  0  0  0  0  0  0  0
   -3.5548   -0.9226    0.5956 C   0  0  0  0  0  0  0  0  0  0  0  0
   -3.2356    0.2272    1.4601 N   0  0  0  0  0  0  0  0  0  0  0  0
   -3.7942    1.4827    0.8911 C   0  0  0  0  0  0  0  0  0  0  0  0
   -5.2873    1.3085    0.5482 C   0  0  0  0  0  0  0  0  0  0  0  0
   -5.5337    0.1820   -0.3147 O   0  0  0  0  0  0  0  0  0  0  0  0
   -5.6957   -3.9764   -3.1416 O   0  0  0  0  0  0  0  0  0  0  0  0
   -4.3023   -6.2689   -2.2627 C   0  0  0  0  0  0  0  0  0  0  0  0
   -4.5987   -6.8941   -0.8956 C   0  0  0  0  0  0  0  0  0  0  0  0
   -3.4271   -6.6863    0.0790 C   0  0  0  0  0  0  0  0  0  0  0  0
   -1.5941   -5.7311    2.0636 O   0  0  0  0  0  0  0  0  0  0  0  0
    0.4980   -0.3727    1.5549 C   0  0  0  0  0  0  0  0  0  0  0  0
    0.8679    0.5816    2.4920 C   0  0  0  0  0  0  0  0  0  0  0  0
   -0.0811    1.4162    3.1034 C   0  0  0  0  0  0  0  0  0  0  0  0
   -1.4311    1.2757    2.7368 C   0  0  0  0  0  0  0  0  0  0  0  0
   -1.8573    0.3406    1.7876 C   0  0  0  0  0  0  0  0  0  0  0  0
   -0.8683   -0.4874    1.2199 C   0  0  0  0  0  0  0  0  0  0  0  0
   -0.9842    3.5831   -3.8698 F   0  0  0  0  0  0  0  0  0  0  0  0
    4.8181    2.6428    0.2378 H   0  0  0  0  0  0  0  0  0  0  0  0
    3.6597    2.7715   -1.0972 H   0  0  0  0  0  0  0  0  0  0  0  0
    3.1311    2.1207    0.4367 H   0  0  0  0  0  0  0  0  0  0  0  0
    5.1479    0.8615   -1.4685 H   0  0  0  0  0  0  0  0  0  0  0  0
    3.0813    1.4615   -2.9559 H   0  0  0  0  0  0  0  0  0  0  0  0
    4.0533   -0.0146   -3.2687 H   0  0  0  0  0  0  0  0  0  0  0  0
    2.2844   -0.1092   -3.1694 H   0  0  0  0  0  0  0  0  0  0  0  0
    7.9644   -1.2282    1.0241 H   0  0  0  0  0  0  0  0  0  0  0  0
    6.8189   -2.1991    3.0207 H   0  0  0  0  0  0  0  0  0  0  0  0
    4.3912   -1.7887    3.3012 H   0  0  0  0  0  0  0  0  0  0  0  0
    2.3318    1.1302    4.6046 H   0  0  0  0  0  0  0  0  0  0  0  0
    3.8529    0.5538    3.9669 H   0  0  0  0  0  0  0  0  0  0  0  0
    3.8704    3.0234    4.2635 H   0  0  0  0  0  0  0  0  0  0  0  0
    4.0795    2.6097    2.5599 H   0  0  0  0  0  0  0  0  0  0  0  0
    2.5101    3.1918    3.1466 H   0  0  0  0  0  0  0  0  0  0  0  0
    0.8782   -2.0280   -0.6091 H   0  0  0  0  0  0  0  0  0  0  0  0
    2.6141   -2.1116   -0.4795 H   0  0  0  0  0  0  0  0  0  0  0  0
    2.7404   -3.3847    2.5114 H   0  0  0  0  0  0  0  0  0  0  0  0
    2.8310   -5.0127    1.8491 H   0  0  0  0  0  0  0  0  0  0  0  0
    3.7511   -3.7197    1.0831 H   0  0  0  0  0  0  0  0  0  0  0  0
    1.5932   -5.6494   -0.2400 H   0  0  0  0  0  0  0  0  0  0  0  0
    0.9110   -4.3981   -1.2902 H   0  0  0  0  0  0  0  0  0  0  0  0
    2.6589   -4.5035   -1.0632 H   0  0  0  0  0  0  0  0  0  0  0  0
    0.4858   -4.8631    2.0342 H   0  0  0  0  0  0  0  0  0  0  0  0
    0.0899   -3.1575    2.1781 H   0  0  0  0  0  0  0  0  0  0  0  0
   -3.7341   -4.5850    0.5752 H   0  0  0  0  0  0  0  0  0  0  0  0
   -2.2030   -3.8951   -1.3334 H   0  0  0  0  0  0  0  0  0  0  0  0
   -3.4057   -2.4437   -1.4131 H   0  0  0  0  0  0  0  0  0  0  0  0
   -5.4427   -0.9811   -2.9500 H   0  0  0  0  0  0  0  0  0  0  0  0
   -4.6431    0.6297   -4.2316 H   0  0  0  0  0  0  0  0  0  0  0  0
   -2.9143   -0.8559   -6.2765 H   0  0  0  0  0  0  0  0  0  0  0  0
   -4.6499   -2.3714   -5.4504 H   0  0  0  0  0  0  0  0  0  0  0  0
   -5.8930   -1.1177   -5.6365 H   0  0  0  0  0  0  0  0  0  0  0  0
   -5.0882   -1.8051   -7.0579 H   0  0  0  0  0  0  0  0  0  0  0  0
   -5.1778    1.1890   -6.6488 H   0  0  0  0  0  0  0  0  0  0  0  0
   -3.4657    1.5136   -6.9509 H   0  0  0  0  0  0  0  0  0  0  0  0
   -4.3218    0.3325   -7.9409 H   0  0  0  0  0  0  0  0  0  0  0  0
   -2.8489    4.7997   -2.6002 H   0  0  0  0  0  0  0  0  0  0  0  0
   -2.8470    3.7717   -1.1661 H   0  0  0  0  0  0  0  0  0  0  0  0
   -0.5516    5.5372   -2.1358 H   0  0  0  0  0  0  0  0  0  0  0  0
   -1.5608    5.7663   -0.7133 H   0  0  0  0  0  0  0  0  0  0  0  0
   -1.2214    9.3958    4.9908 H   0  0  0  0  0  0  0  0  0  0  0  0
    0.0753   10.3683    4.2786 H   0  0  0  0  0  0  0  0  0  0  0  0
   -1.4332   10.2142    3.4231 H   0  0  0  0  0  0  0  0  0  0  0  0
    0.6282    7.6448    5.1406 H   0  0  0  0  0  0  0  0  0  0  0  0
    1.3908    7.0773    3.6389 H   0  0  0  0  0  0  0  0  0  0  0  0
    1.7212    8.6906    4.2225 H   0  0  0  0  0  0  0  0  0  0  0  0
   -2.2579    7.3380    4.8959 H   0  0  0  0  0  0  0  0  0  0  0  0
   -2.5466    5.9656    3.8251 H   0  0  0  0  0  0  0  0  0  0  0  0
   -1.0158    6.0904    4.6754 H   0  0  0  0  0  0  0  0  0  0  0  0
   -3.0123    8.7375    2.8622 H   0  0  0  0  0  0  0  0  0  0  0  0
   -2.0378    8.7451    1.3760 H   0  0  0  0  0  0  0  0  0  0  0  0
   -3.0485    7.3558    1.7711 H   0  0  0  0  0  0  0  0  0  0  0  0
    1.0768    3.4975   -2.1370 H   0  0  0  0  0  0  0  0  0  0  0  0
    1.0414    2.4614   -0.7057 H   0  0  0  0  0  0  0  0  0  0  0  0
   -1.1816    1.6500   -1.2008 H   0  0  0  0  0  0  0  0  0  0  0  0
   -0.1495    1.4296   -2.6028 H   0  0  0  0  0  0  0  0  0  0  0  0
   -0.8932   -0.0069   -4.6305 H   0  0  0  0  0  0  0  0  0  0  0  0
   -1.4726    0.8761   -6.0619 H   0  0  0  0  0  0  0  0  0  0  0  0
   -0.6012    1.7237   -4.8060 H   0  0  0  0  0  0  0  0  0  0  0  0
   -6.4193   -2.1110   -0.9854 H   0  0  0  0  0  0  0  0  0  0  0  0
   -5.4021   -3.1276    0.0248 H   0  0  0  0  0  0  0  0  0  0  0  0
   -5.6149   -1.1487    1.2470 H   0  0  0  0  0  0  0  0  0  0  0  0
   -3.2259   -1.8592    1.0624 H   0  0  0  0  0  0  0  0  0  0  0  0
   -3.0276   -0.7642   -0.3512 H   0  0  0  0  0  0  0  0  0  0  0  0
   -3.6956    2.3211    1.5885 H   0  0  0  0  0  0  0  0  0  0  0  0
   -3.2499    1.7297   -0.0267 H   0  0  0  0  0  0  0  0  0  0  0  0
   -5.8834    1.1873    1.4605 H   0  0  0  0  0  0  0  0  0  0  0  0
   -5.6520    2.2011    0.0306 H   0  0  0  0  0  0  0  0  0  0  0  0
   -5.1912   -6.3154   -2.8989 H   0  0  0  0  0  0  0  0  0  0  0  0
   -3.4916   -6.8073   -2.7701 H   0  0  0  0  0  0  0  0  0  0  0  0
   -5.4949   -6.4242   -0.4703 H   0  0  0  0  0  0  0  0  0  0  0  0
   -4.8118   -7.9637   -1.0053 H   0  0  0  0  0  0  0  0  0  0  0  0
   -2.5913   -7.3333   -0.2231 H   0  0  0  0  0  0  0  0  0  0  0  0
   -3.7302   -7.0186    1.0808 H   0  0  0  0  0  0  0  0  0  0  0  0
    0.2057    2.1599    3.8399 H   0  0  0  0  0  0  0  0  0  0  0  0
   -2.1618    1.9095    3.2340 H   0  0  0  0  0  0  0  0  0  0  0  0
   -1.1092   -1.2358    0.4752 H   0  0  0  0  0  0  0  0  0  0  0  0
  1  2  1  0
  2  3  1  0
  2  5  1  0
  3  4  1  0
  5  6  2  0
  5 10  1  0
  6  7  1  0
  7  8  2  0
  8  9  1  0
  9 10  2  0
 10 11  1  0
 11 12  1  0
 11 15  2  0
 12 13  1  0
 12 68  1  0
 13 14  1  0
 15 16  1  0
 15 67  1  0
 16 17  1  0
 17 18  1  0
 17 19  1  0
 17 20  1  0
 20 21  1  0
 21 22  1  0
 22 23  1  0
 22 66  2  0
 23 24  1  0
 23 65  1  0
 24 25  1  0
 25 26  1  0
 25 63  1  0
 26 27  1  0
 26 62  2  0
 27 28  1  0
 27 55  1  0
 28 29  1  0
 29 30  1  0
 29 54  2  0
 30 31  1  0
 30 34  1  0
 31 32  1  0
 31 33  1  0
 34 35  1  0
 34 53  1  0
 35 36  1  0
 35 52  2  0
 36 37  1  0
 36 51  1  0
 36 73  1  0
 37 38  1  0
 38 39  1  0
 39 40  1  0
 39 50  1  0
 40 41  1  0
 40 49  2  0
 42 43  1  0
 43 44  1  0
 43 47  1  0
 43 48  1  0
 44 45  1  0
 44 46  1  0
 50 51  1  0
 55 56  1  0
 56 57  1  0
 56 61  1  0
 57 58  1  0
 58 59  1  0
 58 71  1  0
 59 60  1  0
 60 61  1  0
 63 64  1  0
 64 65  1  0
 67 68  2  0
 67 72  1  0
 68 69  1  0
 69 70  2  0
 70 71  1  0
 71 72  2  0
 41 42  3  0
  1 74  1  0
  1 75  1  0
  1 76  1  0
  2 77  1  6
  4 78  1  0
  4 79  1  0
  4 80  1  0
  7 81  1  0
  8 82  1  0
  9 83  1  0
 13 84  1  0
 13 85  1  0
 14 86  1  0
 14 87  1  0
 14 88  1  0
 16 89  1  0
 16 90  1  0
 18 91  1  0
 18 92  1  0
 18 93  1  0
 19 94  1  0
 19 95  1  0
 19 96  1  0
 20 97  1  0
 20 98  1  0
 23 99  1  1
 24100  1  0
 27101  1  1
 28102  1  0
 30103  1  1
 31104  1  0
 32105  1  0
 32106  1  0
 32107  1  0
 33108  1  0
 33109  1  0
 33110  1  0
 37111  1  0
 37112  1  0
 38113  1  0
 38114  1  0
 45115  1  0
 45116  1  0
 45117  1  0
 46118  1  0
 46119  1  0
 46120  1  0
 47121  1  0
 47122  1  0
 47123  1  0
 48124  1  0
 48125  1  0
 48126  1  0
 50127  1  0
 50128  1  0
 51129  1  0
 51130  1  0
 53131  1  0
 53132  1  0
 53133  1  0
 55134  1  0
 55135  1  0
 56136  1  1
 57137  1  0
 57138  1  0
 59139  1  0
 59140  1  0
 60141  1  0
 60142  1  0
 63143  1  0
 63144  1  0
 64145  1  0
 64146  1  0
 65147  1  0
 65148  1  0
 69149  1  0
 70150  1  0
 72151  1  0
M  END
$$$$
