mol_bioactive_28
     RDKit          3D

151157  0  0  0  0  0  0  0  0999 V2000
   -0.8781    4.5751   -2.8066 C   0  0  0  0  0  0  0  0  0  0  0  0
    0.3261    3.9594   -3.5143 C   0  0  2  0  0  0  0  0  0  0  0  0
    0.4751    2.5828   -3.1428 O   0  0  0  0  0  0  0  0  0  0  0  0
   -0.1065    1.6983   -4.0902 C   0  0  0  0  0  0  0  0  0  0  0  0
    1.5893    4.7814   -3.2980 C   0  0  0  0  0  0  0  0  0  0  0  0
    1.9177    5.5586   -4.3799 N   0  0  0  0  0  0  0  0  0  0  0  0
    2.9704    6.3945   -4.2812 C   0  0  0  0  0  0  0  0  0  0  0  0
    3.7324    6.5240   -3.1424 C   0  0  0  0  0  0  0  0  0  0  0  0
    3.3997    5.7394   -2.0453 C   0  0  0  0  0  0  0  0  0  0  0  0
    2.3246    4.8366   -2.1013 C   0  0  0  0  0  0  0  0  0  0  0  0
    2.0352    4.0517   -0.8917 C   0  0  0  0  0  0  0  0  0  0  0  0
    1.3429    4.5671    0.1971 N   0  0  0  0  0  0  0  0  0  0  0  0
    0.8271    5.9264    0.3198 C   0  0  0  0  0  0  0  0  0  0  0  0
    1.7252    6.8094    1.1732 C   0  0  0  0  0  0  0  0  0  0  0  0
    2.3954    2.7407   -0.5679 C   0  0  0  0  0  0  0  0  0  0  0  0
    3.1397    1.7326   -1.4185 C   0  0  0  0  0  0  0  0  0  0  0  0
    4.6845    1.6418   -1.2704 C   0  0  0  0  0  0  0  0  0  0  0  0
    5.3485    2.9695   -1.6800 C   0  0  0  0  0  0  0  0  0  0  0  0
    5.1792    0.5526   -2.2515 C   0  0  0  0  0  0  0  0  0  0  0  0
    5.1670    1.2944    0.1607 C   0  0  0  0  0  0  0  0  0  0  0  0
    4.9695   -0.0972    0.4926 O   0  0  0  0  0  0  0  0  0  0  0  0
    5.9563   -0.6377    1.2797 C   0  0  0  0  0  0  0  0  0  0  0  0
    5.7108   -2.1157    1.6075 C   0  0  1  0  0  0  0  0  0  0  0  0
    4.9838   -2.8107    0.5298 N   0  0  0  0  0  0  0  0  0  0  0  0
    4.7344   -4.1664    0.8809 N   0  0  0  0  0  0  0  0  0  0  0  0
    3.5400   -4.6546    1.4327 C   0  0  0  0  0  0  0  0  0  0  0  0
    2.4476   -3.6317    1.7937 C   0  0  1  0  0  0  0  0  0  0  0  0
    1.1768   -4.0017    1.1952 N   0  0  0  0  0  0  0  0  0  0  0  0
    0.8397   -3.5580   -0.0669 C   0  0  0  0  0  0  0  0  0  0  0  0
   -0.5410   -4.0373   -0.5837 C   0  0  2  0  0  0  0  0  0  0  0  0
   -0.3943   -5.2057   -1.5939 C   0  0  0  0  0  0  0  0  0  0  0  0
   -1.7729   -5.7645   -1.9768 C   0  0  0  0  0  0  0  0  0  0  0  0
    0.4569   -6.3528   -1.0311 C   0  0  0  0  0  0  0  0  0  0  0  0
   -1.2747   -2.8435   -1.0922 N   0  0  0  0  0  0  0  0  0  0  0  0
   -1.9732   -2.0976   -0.1361 C   0  0  0  0  0  0  0  0  0  0  0  0
   -2.5661   -0.7127   -0.4978 C   0  0  0  0  0  0  0  0  0  0  0  0
   -3.5893   -0.3058    0.5765 C   0  0  0  0  0  0  0  0  0  0  0  0
   -4.0947    1.1101    0.3614 C   0  0  0  0  0  0  0  0  0  0  0  0
   -2.9833    2.0443    0.2452 N   0  0  0  0  0  0  0  0  0  0  0  0
   -2.9782    3.3048    0.8265 C   0  0  0  0  0  0  0  0  0  0  0  0
   -3.7576    3.4903    2.0317 C   0  0  0  0  0  0  0  0  0  0  0  0
   -4.3232    3.6208    3.0842 C   0  0  0  0  0  0  0  0  0  0  0  0
   -4.9502    3.7557    4.4202 C   0  0  0  0  0  0  0  0  0  0  0  0
   -5.0040    5.1702    4.8831 N   0  0  0  0  0  0  0  0  0  0  0  0
   -5.8555    6.0363    4.0609 C   0  0  0  0  0  0  0  0  0  0  0  0
   -3.6890    5.8004    5.0434 C   0  0  0  0  0  0  0  0  0  0  0  0
   -6.3691    3.1414    4.3602 C   0  0  0  0  0  0  0  0  0  0  0  0
   -4.1414    2.8923    5.4188 C   0  0  0  0  0  0  0  0  0  0  0  0
   -2.3154    4.2553    0.4293 O   0  0  0  0  0  0  0  0  0  0  0  0
   -2.0058    1.7341   -0.7847 C   0  0  0  0  0  0  0  0  0  0  0  0
   -1.4471    0.3303   -0.5931 C   0  0  0  0  0  0  0  0  0  0  0  0
   -2.0805   -2.5235    1.0212 O   0  0  0  0  0  0  0  0  0  0  0  0
   -0.9698   -2.3707   -2.4431 C   0  0  0  0  0  0  0  0  0  0  0  0
    1.5946   -2.8367   -0.7196 O   0  0  0  0  0  0  0  0  0  0  0  0
    2.3619   -3.5100    3.3282 C   0  0  0  0  0  0  0  0  0  0  0  0
    1.5070   -2.3374    3.8457 C   0  0  1  0  0  0  0  0  0  0  0  0
    1.6761   -1.0707    2.9888 C   0  0  0  0  0  0  0  0  0  0  0  0
    0.8461    0.0481    3.4707 N   0  0  0  0  0  0  0  0  0  0  0  0
   -0.5763   -0.3737    3.6056 C   0  0  0  0  0  0  0  0  0  0  0  0
   -0.6832   -1.6810    4.4175 C   0  0  0  0  0  0  0  0  0  0  0  0
    0.1247   -2.7407    3.8689 O   0  0  0  0  0  0  0  0  0  0  0  0
    3.3725   -5.8537    1.6842 O   0  0  0  0  0  0  0  0  0  0  0  0
    5.9554   -4.9699    0.9508 C   0  0  0  0  0  0  0  0  0  0  0  0
    6.8630   -4.3665    2.0273 C   0  0  0  0  0  0  0  0  0  0  0  0
    7.0513   -2.8525    1.8154 C   0  0  0  0  0  0  0  0  0  0  0  0
    6.9004   -0.0031    1.7437 O   0  0  0  0  0  0  0  0  0  0  0  0
    1.7919    2.4502    0.7014 C   0  0  0  0  0  0  0  0  0  0  0  0
    1.1425    3.5904    1.1528 C   0  0  0  0  0  0  0  0  0  0  0  0
    0.4403    3.6041    2.3689 C   0  0  0  0  0  0  0  0  0  0  0  0
    0.3726    2.4192    3.1175 C   0  0  0  0  0  0  0  0  0  0  0  0
    0.9804    1.2337    2.6938 C   0  0  0  0  0  0  0  0  0  0  0  0
    1.7194    1.2839    1.4931 C   0  0  0  0  0  0  0  0  0  0  0  0
   -3.2430   -0.7413   -1.6892 F   0  0  0  0  0  0  0  0  0  0  0  0
   -0.7705    4.5298   -1.7214 H   0  0  0  0  0  0  0  0  0  0  0  0
   -1.0191    5.6230   -3.0908 H   0  0  0  0  0  0  0  0  0  0  0  0
   -1.7926    4.0254   -3.0521 H   0  0  0  0  0  0  0  0  0  0  0  0
    0.1157    4.0072   -4.5945 H   0  0  0  0  0  0  0  0  0  0  0  0
   -1.1720    1.9091   -4.2195 H   0  0  0  0  0  0  0  0  0  0  0  0
    0.4155    1.7703   -5.0480 H   0  0  0  0  0  0  0  0  0  0  0  0
    0.0057    0.6763   -3.7168 H   0  0  0  0  0  0  0  0  0  0  0  0
    3.1812    6.9797   -5.1708 H   0  0  0  0  0  0  0  0  0  0  0  0
    4.5628    7.2171   -3.1045 H   0  0  0  0  0  0  0  0  0  0  0  0
    3.9886    5.8270   -1.1361 H   0  0  0  0  0  0  0  0  0  0  0  0
    0.7109    6.3548   -0.6788 H   0  0  0  0  0  0  0  0  0  0  0  0
   -0.1743    5.8674    0.7550 H   0  0  0  0  0  0  0  0  0  0  0  0
    1.8288    6.4117    2.1883 H   0  0  0  0  0  0  0  0  0  0  0  0
    2.7284    6.8922    0.7454 H   0  0  0  0  0  0  0  0  0  0  0  0
    1.3023    7.8157    1.2469 H   0  0  0  0  0  0  0  0  0  0  0  0
    2.7064    0.7406   -1.2281 H   0  0  0  0  0  0  0  0  0  0  0  0
    2.9081    1.9418   -2.4712 H   0  0  0  0  0  0  0  0  0  0  0  0
    5.1498    3.7540   -0.9435 H   0  0  0  0  0  0  0  0  0  0  0  0
    6.4388    2.8632   -1.7455 H   0  0  0  0  0  0  0  0  0  0  0  0
    4.9991    3.3026   -2.6628 H   0  0  0  0  0  0  0  0  0  0  0  0
    4.6896   -0.4107   -2.0655 H   0  0  0  0  0  0  0  0  0  0  0  0
    4.9692    0.8308   -3.2906 H   0  0  0  0  0  0  0  0  0  0  0  0
    6.2616    0.3989   -2.1626 H   0  0  0  0  0  0  0  0  0  0  0  0
    6.2344    1.5456    0.2213 H   0  0  0  0  0  0  0  0  0  0  0  0
    4.6563    1.9009    0.9153 H   0  0  0  0  0  0  0  0  0  0  0  0
    5.1202   -2.1332    2.5323 H   0  0  0  0  0  0  0  0  0  0  0  0
    4.1590   -2.3104    0.1871 H   0  0  0  0  0  0  0  0  0  0  0  0
    2.7288   -2.6673    1.3853 H   0  0  0  0  0  0  0  0  0  0  0  0
    0.5442   -4.5942    1.7201 H   0  0  0  0  0  0  0  0  0  0  0  0
   -1.0954   -4.4305    0.2789 H   0  0  0  0  0  0  0  0  0  0  0  0
    0.1065   -4.8545   -2.5021 H   0  0  0  0  0  0  0  0  0  0  0  0
   -2.2827   -6.1864   -1.1040 H   0  0  0  0  0  0  0  0  0  0  0  0
   -2.4197   -4.9946   -2.4032 H   0  0  0  0  0  0  0  0  0  0  0  0
   -1.6725   -6.5591   -2.7233 H   0  0  0  0  0  0  0  0  0  0  0  0
    0.0574   -6.7147   -0.0779 H   0  0  0  0  0  0  0  0  0  0  0  0
    0.4819   -7.1966   -1.7290 H   0  0  0  0  0  0  0  0  0  0  0  0
    1.4926   -6.0384   -0.8723 H   0  0  0  0  0  0  0  0  0  0  0  0
   -4.4419   -0.9953    0.5582 H   0  0  0  0  0  0  0  0  0  0  0  0
   -3.1451   -0.3651    1.5774 H   0  0  0  0  0  0  0  0  0  0  0  0
   -4.6719    1.1750   -0.5699 H   0  0  0  0  0  0  0  0  0  0  0  0
   -4.7744    1.3880    1.1703 H   0  0  0  0  0  0  0  0  0  0  0  0
   -5.8715    7.0541    4.4693 H   0  0  0  0  0  0  0  0  0  0  0  0
   -5.5145    6.0998    3.0211 H   0  0  0  0  0  0  0  0  0  0  0  0
   -6.8984    5.7083    4.0732 H   0  0  0  0  0  0  0  0  0  0  0  0
   -3.0717    5.2759    5.7778 H   0  0  0  0  0  0  0  0  0  0  0  0
   -3.1341    5.8692    4.1013 H   0  0  0  0  0  0  0  0  0  0  0  0
   -3.8010    6.8180    5.4368 H   0  0  0  0  0  0  0  0  0  0  0  0
   -6.8993    3.2738    5.3106 H   0  0  0  0  0  0  0  0  0  0  0  0
   -6.9791    3.5764    3.5611 H   0  0  0  0  0  0  0  0  0  0  0  0
   -6.3257    2.0644    4.1548 H   0  0  0  0  0  0  0  0  0  0  0  0
   -4.5172    3.0096    6.4421 H   0  0  0  0  0  0  0  0  0  0  0  0
   -4.2060    1.8258    5.1641 H   0  0  0  0  0  0  0  0  0  0  0  0
   -3.0731    3.1367    5.4154 H   0  0  0  0  0  0  0  0  0  0  0  0
   -2.4999    1.8308   -1.7581 H   0  0  0  0  0  0  0  0  0  0  0  0
   -1.1820    2.4513   -0.7555 H   0  0  0  0  0  0  0  0  0  0  0  0
   -0.8476    0.3006    0.3235 H   0  0  0  0  0  0  0  0  0  0  0  0
   -0.7641    0.1144   -1.4175 H   0  0  0  0  0  0  0  0  0  0  0  0
    0.0827   -2.0891   -2.5040 H   0  0  0  0  0  0  0  0  0  0  0  0
   -1.1698   -3.1651   -3.1662 H   0  0  0  0  0  0  0  0  0  0  0  0
   -1.5674   -1.5138   -2.7413 H   0  0  0  0  0  0  0  0  0  0  0  0
    1.9866   -4.4498    3.7533 H   0  0  0  0  0  0  0  0  0  0  0  0
    3.3807   -3.3756    3.7155 H   0  0  0  0  0  0  0  0  0  0  0  0
    1.8061   -2.1321    4.8812 H   0  0  0  0  0  0  0  0  0  0  0  0
    2.7361   -0.7897    2.9884 H   0  0  0  0  0  0  0  0  0  0  0  0
    1.3404   -1.2994    1.9720 H   0  0  0  0  0  0  0  0  0  0  0  0
   -1.1806    0.3916    4.1028 H   0  0  0  0  0  0  0  0  0  0  0  0
   -0.9908   -0.5502    2.6071 H   0  0  0  0  0  0  0  0  0  0  0  0
   -0.3859   -1.5165    5.4610 H   0  0  0  0  0  0  0  0  0  0  0  0
   -1.7208   -2.0302    4.4214 H   0  0  0  0  0  0  0  0  0  0  0  0
    5.7287   -6.0136    1.1897 H   0  0  0  0  0  0  0  0  0  0  0  0
    6.4416   -4.9397   -0.0317 H   0  0  0  0  0  0  0  0  0  0  0  0
    6.4106   -4.5263    3.0142 H   0  0  0  0  0  0  0  0  0  0  0  0
    7.8360   -4.8708    2.0305 H   0  0  0  0  0  0  0  0  0  0  0  0
    7.7003   -2.6928    0.9431 H   0  0  0  0  0  0  0  0  0  0  0  0
    7.5831   -2.4326    2.6782 H   0  0  0  0  0  0  0  0  0  0  0  0
   -0.0657    4.4984    2.7201 H   0  0  0  0  0  0  0  0  0  0  0  0
   -0.1683    2.4430    4.0600 H   0  0  0  0  0  0  0  0  0  0  0  0
    2.2273    0.4147    1.0985 H   0  0  0  0  0  0  0  0  0  0  0  0
  1  2  1  0
  2  3  1  0
  2  5  1  0
  3  4  1  0
  5  6  2  0
  5 10  1  0
  6  7  1  0
  7  8  2  0
  8  9  1  0
  9 10  2  0
 10 11  1  0
 11 12  1  0
 11 15  2  0
 12 13  1  0
 12 68  1  0
 13 14  1  0
 15 16  1  0
 15 67  1  0
 16 17  1  0
 17 18  1  0
 17 19  1  0
 17 20  1  0
 20 21  1  0
 21 22  1  0
 22 23  1  0
 22 66  2  0
 23 24  1  0
 23 65  1  0
 24 25  1  0
 25 26  1  0
 25 63  1  0
 26 27  1  0
 26 62  2  0
 27 28  1  0
 27 55  1  0
 28 29  1  0
 29 30  1  0
 29 54  2  0
 30 31  1  0
 30 34  1  0
 31 32  1  0
 31 33  1  0
 34 35  1  0
 34 53  1  0
 35 36  1  0
 35 52  2  0
 36 37  1  0
 36 51  1  0
 36 73  1  0
 37 38  1  0
 38 39  1  0
 39 40  1  0
 39 50  1  0
 40 41  1  0
 40 49  2  0
 42 43  1  0
 43 44  1  0
 43 47  1  0
 43 48  1  0
 44 45  1  0
 44 46  1  0
 50 51  1  0
 55 56  1  0
 56 57  1  0
 56 61  1  0
 57 58  1  0
 58 59  1  0
 58 71  1  0
 59 60  1  0
 60 61  1  0
 63 64  1  0
 64 65  1  0
 67 68  2  0
 67 72  1  0
 68 69  1  0
 69 70  2  0
 70 71  1  0
 71 72  2  0
 41 42  3  0
  1 74  1  0
  1 75  1  0
  1 76  1  0
  2 77  1  6
  4 78  1  0
  4 79  1  0
  4 80  1  0
  7 81  1  0
  8 82  1  0
  9 83  1  0
 13 84  1  0
 13 85  1  0
 14 86  1  0
 14 87  1  0
 14 88  1  0
 16 89  1  0
 16 90  1  0
 18 91  1  0
 18 92  1  0
 18 93  1  0
 19 94  1  0
 19 95  1  0
 19 96  1  0
 20 97  1  0
 20 98  1  0
 23 99  1  1
 24100  1  0
 27101  1  6
 28102  1  0
 30103  1  1
 31104  1  0
 32105  1  0
 32106  1  0
 32107  1  0
 33108  1  0
 33109  1  0
 33110  1  0
 37111  1  0
 37112  1  0
 38113  1  0
 38114  1  0
 45115  1  0
 45116  1  0
 45117  1  0
 46118  1  0
 46119  1  0
 46120  1  0
 47121  1  0
 47122  1  0
 47123  1  0
 48124  1  0
 48125  1  0
 48126  1  0
 50127  1  0
 50128  1  0
 51129  1  0
 51130  1  0
 53131  1  0
 53132  1  0
 53133  1  0
 55134  1  0
 55135  1  0
 56136  1  1
 57137  1  0
 57138  1  0
 59139  1  0
 59140  1  0
 60141  1  0
 60142  1  0
 63143  1  0
 63144  1  0
 64145  1  0
 64146  1  0
 65147  1  0
 65148  1  0
 69149  1  0
 70150  1  0
 72151  1  0
M  END
$$$$
