mol_ETKDG0_35
     RDKit          3D

151157  0  0  0  0  0  0  0  0999 V2000
    2.8900    7.4434   -8.2962 C   0  0  0  0  0  0  0  0  0  0  0  0
    2.6185    6.0110   -7.8273 C   0  0  2  0  0  0  0  0  0  0  0  0
    3.7688    5.1948   -8.0947 O   0  0  0  0  0  0  0  0  0  0  0  0
    4.7507    5.2661   -7.0701 C   0  0  0  0  0  0  0  0  0  0  0  0
    1.4032    5.3989   -8.5235 C   0  0  0  0  0  0  0  0  0  0  0  0
    1.1111    5.8605   -9.7754 N   0  0  0  0  0  0  0  0  0  0  0  0
    0.0483    5.3349  -10.4177 C   0  0  0  0  0  0  0  0  0  0  0  0
   -0.7740    4.3670   -9.8752 C   0  0  0  0  0  0  0  0  0  0  0  0
   -0.4799    3.9012   -8.5998 C   0  0  0  0  0  0  0  0  0  0  0  0
    0.6284    4.3996   -7.9044 C   0  0  0  0  0  0  0  0  0  0  0  0
    0.9261    3.8782   -6.5651 C   0  0  0  0  0  0  0  0  0  0  0  0
    0.3125    4.3376   -5.4163 N   0  0  0  0  0  0  0  0  0  0  0  0
   -0.7732    5.3075   -5.3574 C   0  0  0  0  0  0  0  0  0  0  0  0
   -2.1275    4.6380   -5.2072 C   0  0  0  0  0  0  0  0  0  0  0  0
    1.8547    2.9071   -6.1863 C   0  0  0  0  0  0  0  0  0  0  0  0
    2.7157    2.0995   -7.1308 C   0  0  0  0  0  0  0  0  0  0  0  0
    2.2211    0.6619   -7.4799 C   0  0  0  0  0  0  0  0  0  0  0  0
    3.0653    0.1612   -8.6775 C   0  0  0  0  0  0  0  0  0  0  0  0
    0.7439    0.6340   -7.9064 C   0  0  0  0  0  0  0  0  0  0  0  0
    2.4110   -0.3083   -6.3007 C   0  0  0  0  0  0  0  0  0  0  0  0
    3.8076   -0.3814   -5.9764 O   0  0  0  0  0  0  0  0  0  0  0  0
    4.1208   -1.1811   -4.9225 C   0  0  0  0  0  0  0  0  0  0  0  0
    5.6201   -1.0868   -4.6370 C   0  0  1  0  0  0  0  0  0  0  0  0
    5.9727   -2.0260   -3.5644 N   0  0  0  0  0  0  0  0  0  0  0  0
    7.3125   -1.8444   -3.1667 N   0  0  0  0  0  0  0  0  0  0  0  0
    7.7343   -1.6568   -1.8459 C   0  0  0  0  0  0  0  0  0  0  0  0
    6.6733   -1.2371   -0.7918 C   0  0  1  0  0  0  0  0  0  0  0  0
    7.0036   -1.8786    0.4796 N   0  0  0  0  0  0  0  0  0  0  0  0
    6.8356   -3.2411    0.6149 C   0  0  0  0  0  0  0  0  0  0  0  0
    7.1013   -3.7723    2.0390 C   0  0  2  0  0  0  0  0  0  0  0  0
    7.5991   -5.2428    2.0230 C   0  0  0  0  0  0  0  0  0  0  0  0
    7.6686   -5.8318    3.4360 C   0  0  0  0  0  0  0  0  0  0  0  0
    8.9891   -5.3327    1.3776 C   0  0  0  0  0  0  0  0  0  0  0  0
    5.8644   -3.5799    2.8414 N   0  0  0  0  0  0  0  0  0  0  0  0
    5.7825   -2.4103    3.6080 C   0  0  0  0  0  0  0  0  0  0  0  0
    4.5983   -2.2666    4.5950 C   0  0  0  0  0  0  0  0  0  0  0  0
    4.6681   -3.3780    5.6591 C   0  0  0  0  0  0  0  0  0  0  0  0
    3.5667   -3.1899    6.6951 C   0  0  0  0  0  0  0  0  0  0  0  0
    3.6838   -1.8649    7.2817 N   0  0  0  0  0  0  0  0  0  0  0  0
    4.2660   -1.7437    8.5386 C   0  0  0  0  0  0  0  0  0  0  0  0
    4.6318   -0.4286    9.0116 C   0  0  0  0  0  0  0  0  0  0  0  0
    4.9838    0.6540    9.3979 C   0  0  0  0  0  0  0  0  0  0  0  0
    5.4655    1.9803    9.8630 C   0  0  0  0  0  0  0  0  0  0  0  0
    4.9852    3.0164    8.9093 N   0  0  0  0  0  0  0  0  0  0  0  0
    5.5897    2.9251    7.5754 C   0  0  0  0  0  0  0  0  0  0  0  0
    5.1047    4.3924    9.3953 C   0  0  0  0  0  0  0  0  0  0  0  0
    4.8766    2.1900   11.2787 C   0  0  0  0  0  0  0  0  0  0  0  0
    7.0043    1.9194    9.9904 C   0  0  0  0  0  0  0  0  0  0  0  0
    4.5246   -2.6996    9.2625 O   0  0  0  0  0  0  0  0  0  0  0  0
    3.5423   -0.7694    6.3300 C   0  0  0  0  0  0  0  0  0  0  0  0
    4.6221   -0.8753    5.2580 C   0  0  0  0  0  0  0  0  0  0  0  0
    6.6662   -1.5473    3.5396 O   0  0  0  0  0  0  0  0  0  0  0  0
    4.6490   -4.2347    2.3541 C   0  0  0  0  0  0  0  0  0  0  0  0
    6.4262   -3.9548   -0.3016 O   0  0  0  0  0  0  0  0  0  0  0  0
    6.7014    0.2986   -0.6786 C   0  0  0  0  0  0  0  0  0  0  0  0
    5.3320    0.9447   -0.4162 C   0  0  1  0  0  0  0  0  0  0  0  0
    4.5280    1.1650   -1.7253 C   0  0  0  0  0  0  0  0  0  0  0  0
    3.2422    1.8031   -1.3923 N   0  0  0  0  0  0  0  0  0  0  0  0
    2.4725    0.9882   -0.4231 C   0  0  0  0  0  0  0  0  0  0  0  0
    3.3288    0.7471    0.8325 C   0  0  0  0  0  0  0  0  0  0  0  0
    4.5921    0.1368    0.5180 O   0  0  0  0  0  0  0  0  0  0  0  0
    8.9311   -1.7150   -1.5393 O   0  0  0  0  0  0  0  0  0  0  0  0
    8.2782   -2.1937   -4.2142 C   0  0  0  0  0  0  0  0  0  0  0  0
    7.9752   -1.4093   -5.4960 C   0  0  0  0  0  0  0  0  0  0  0  0
    6.4826   -1.4386   -5.8563 C   0  0  0  0  0  0  0  0  0  0  0  0
    3.3076   -1.7935   -4.2419 O   0  0  0  0  0  0  0  0  0  0  0  0
    1.8965    2.9028   -4.7484 C   0  0  0  0  0  0  0  0  0  0  0  0
    0.9103    3.7807   -4.3026 C   0  0  0  0  0  0  0  0  0  0  0  0
    0.6693    3.9926   -2.9399 C   0  0  0  0  0  0  0  0  0  0  0  0
    1.4614    3.3055   -2.0145 C   0  0  0  0  0  0  0  0  0  0  0  0
    2.4763    2.4177   -2.3933 C   0  0  0  0  0  0  0  0  0  0  0  0
    2.6933    2.2421   -3.7727 C   0  0  0  0  0  0  0  0  0  0  0  0
    3.3952   -2.3693    3.9427 F   0  0  0  0  0  0  0  0  0  0  0  0
    3.6977    7.8978   -7.7161 H   0  0  0  0  0  0  0  0  0  0  0  0
    3.2146    7.4633   -9.3425 H   0  0  0  0  0  0  0  0  0  0  0  0
    2.0023    8.0737   -8.1911 H   0  0  0  0  0  0  0  0  0  0  0  0
    2.4234    6.0512   -6.7471 H   0  0  0  0  0  0  0  0  0  0  0  0
    4.3374    4.9323   -6.1143 H   0  0  0  0  0  0  0  0  0  0  0  0
    5.5752    4.6013   -7.3409 H   0  0  0  0  0  0  0  0  0  0  0  0
    5.1465    6.2812   -6.9757 H   0  0  0  0  0  0  0  0  0  0  0  0
   -0.1297    5.7265  -11.4149 H   0  0  0  0  0  0  0  0  0  0  0  0
   -1.6181    3.9790  -10.4320 H   0  0  0  0  0  0  0  0  0  0  0  0
   -1.1053    3.1329   -8.1527 H   0  0  0  0  0  0  0  0  0  0  0  0
   -0.5763    5.9784   -4.5151 H   0  0  0  0  0  0  0  0  0  0  0  0
   -0.7497    5.9248   -6.2583 H   0  0  0  0  0  0  0  0  0  0  0  0
   -2.1640    3.9990   -4.3191 H   0  0  0  0  0  0  0  0  0  0  0  0
   -2.9149    5.3914   -5.1127 H   0  0  0  0  0  0  0  0  0  0  0  0
   -2.3593    4.0110   -6.0748 H   0  0  0  0  0  0  0  0  0  0  0  0
    2.8126    2.6632   -8.0673 H   0  0  0  0  0  0  0  0  0  0  0  0
    3.7337    2.0594   -6.7221 H   0  0  0  0  0  0  0  0  0  0  0  0
    4.1389    0.1982   -8.4601 H   0  0  0  0  0  0  0  0  0  0  0  0
    2.8129   -0.8755   -8.9313 H   0  0  0  0  0  0  0  0  0  0  0  0
    2.8894    0.7721   -9.5691 H   0  0  0  0  0  0  0  0  0  0  0  0
    0.0791    0.9562   -7.0986 H   0  0  0  0  0  0  0  0  0  0  0  0
    0.5731    1.2728   -8.7778 H   0  0  0  0  0  0  0  0  0  0  0  0
    0.4370   -0.3812   -8.1876 H   0  0  0  0  0  0  0  0  0  0  0  0
    1.8382    0.0182   -5.4264 H   0  0  0  0  0  0  0  0  0  0  0  0
    2.0648   -1.3122   -6.5782 H   0  0  0  0  0  0  0  0  0  0  0  0
    5.8141   -0.0589   -4.3055 H   0  0  0  0  0  0  0  0  0  0  0  0
    5.2788   -2.0562   -2.8187 H   0  0  0  0  0  0  0  0  0  0  0  0
    5.6811   -1.5911   -1.0641 H   0  0  0  0  0  0  0  0  0  0  0  0
    6.9718   -1.3311    1.3385 H   0  0  0  0  0  0  0  0  0  0  0  0
    7.9071   -3.1671    2.4746 H   0  0  0  0  0  0  0  0  0  0  0  0
    6.9227   -5.8665    1.4282 H   0  0  0  0  0  0  0  0  0  0  0  0
    6.6753   -5.9032    3.8888 H   0  0  0  0  0  0  0  0  0  0  0  0
    8.0882   -6.8438    3.4147 H   0  0  0  0  0  0  0  0  0  0  0  0
    8.2982   -5.2191    4.0904 H   0  0  0  0  0  0  0  0  0  0  0  0
    9.3239   -6.3748    1.3271 H   0  0  0  0  0  0  0  0  0  0  0  0
    8.9851   -4.9412    0.3565 H   0  0  0  0  0  0  0  0  0  0  0  0
    9.7306   -4.7714    1.9549 H   0  0  0  0  0  0  0  0  0  0  0  0
    4.5575   -4.3704    5.2131 H   0  0  0  0  0  0  0  0  0  0  0  0
    5.6512   -3.3589    6.1490 H   0  0  0  0  0  0  0  0  0  0  0  0
    2.5757   -3.2721    6.2316 H   0  0  0  0  0  0  0  0  0  0  0  0
    3.6362   -3.9698    7.4602 H   0  0  0  0  0  0  0  0  0  0  0  0
    6.6465    3.2129    7.5731 H   0  0  0  0  0  0  0  0  0  0  0  0
    5.5061    1.9189    7.1525 H   0  0  0  0  0  0  0  0  0  0  0  0
    5.0619    3.5871    6.8784 H   0  0  0  0  0  0  0  0  0  0  0  0
    4.4993    4.5594   10.2920 H   0  0  0  0  0  0  0  0  0  0  0  0
    6.1407    4.6735    9.6114 H   0  0  0  0  0  0  0  0  0  0  0  0
    4.7164    5.0973    8.6506 H   0  0  0  0  0  0  0  0  0  0  0  0
    5.0884    1.3317   11.9276 H   0  0  0  0  0  0  0  0  0  0  0  0
    5.2982    3.0721   11.7725 H   0  0  0  0  0  0  0  0  0  0  0  0
    3.7857    2.3010   11.2440 H   0  0  0  0  0  0  0  0  0  0  0  0
    7.3061    1.1712   10.7350 H   0  0  0  0  0  0  0  0  0  0  0  0
    7.4866    1.6277    9.0496 H   0  0  0  0  0  0  0  0  0  0  0  0
    7.4257    2.8789   10.3074 H   0  0  0  0  0  0  0  0  0  0  0  0
    2.5455   -0.8473    5.8786 H   0  0  0  0  0  0  0  0  0  0  0  0
    3.5938    0.2033    6.8251 H   0  0  0  0  0  0  0  0  0  0  0  0
    5.6026   -0.6885    5.7147 H   0  0  0  0  0  0  0  0  0  0  0  0
    4.4579   -0.0975    4.5041 H   0  0  0  0  0  0  0  0  0  0  0  0
    3.9394   -4.4082    3.1622 H   0  0  0  0  0  0  0  0  0  0  0  0
    4.1771   -3.5871    1.6089 H   0  0  0  0  0  0  0  0  0  0  0  0
    4.8803   -5.2034    1.9093 H   0  0  0  0  0  0  0  0  0  0  0  0
    7.3655    0.5765    0.1510 H   0  0  0  0  0  0  0  0  0  0  0  0
    7.1373    0.7578   -1.5745 H   0  0  0  0  0  0  0  0  0  0  0  0
    5.5082    1.9235    0.0509 H   0  0  0  0  0  0  0  0  0  0  0  0
    5.1158    1.8003   -2.3986 H   0  0  0  0  0  0  0  0  0  0  0  0
    4.3376    0.2028   -2.2139 H   0  0  0  0  0  0  0  0  0  0  0  0
    1.5387    1.4684   -0.1120 H   0  0  0  0  0  0  0  0  0  0  0  0
    2.2202    0.0272   -0.8881 H   0  0  0  0  0  0  0  0  0  0  0  0
    3.5167    1.6882    1.3623 H   0  0  0  0  0  0  0  0  0  0  0  0
    2.8015    0.0778    1.5187 H   0  0  0  0  0  0  0  0  0  0  0  0
    9.3027   -1.9891   -3.8876 H   0  0  0  0  0  0  0  0  0  0  0  0
    8.1985   -3.2727   -4.3925 H   0  0  0  0  0  0  0  0  0  0  0  0
    8.2726   -0.3644   -5.3476 H   0  0  0  0  0  0  0  0  0  0  0  0
    8.5718   -1.8001   -6.3268 H   0  0  0  0  0  0  0  0  0  0  0  0
    6.2139   -2.4351   -6.2309 H   0  0  0  0  0  0  0  0  0  0  0  0
    6.2949   -0.7368   -6.6785 H   0  0  0  0  0  0  0  0  0  0  0  0
   -0.0929    4.6825   -2.5924 H   0  0  0  0  0  0  0  0  0  0  0  0
    1.2935    3.5106   -0.9595 H   0  0  0  0  0  0  0  0  0  0  0  0
    3.4758    1.5838   -4.1228 H   0  0  0  0  0  0  0  0  0  0  0  0
  1  2  1  0
  2  3  1  0
  2  5  1  0
  3  4  1  0
  5  6  2  0
  5 10  1  0
  6  7  1  0
  7  8  2  0
  8  9  1  0
  9 10  2  0
 10 11  1  0
 11 12  1  0
 11 15  2  0
 12 13  1  0
 12 68  1  0
 13 14  1  0
 15 16  1  0
 15 67  1  0
 16 17  1  0
 17 18  1  0
 17 19  1  0
 17 20  1  0
 20 21  1  0
 21 22  1  0
 22 23  1  0
 22 66  2  0
 23 24  1  0
 23 65  1  0
 24 25  1  0
 25 26  1  0
 25 63  1  0
 26 27  1  0
 26 62  2  0
 27 28  1  0
 27 55  1  0
 28 29  1  0
 29 30  1  0
 29 54  2  0
 30 31  1  0
 30 34  1  0
 31 32  1  0
 31 33  1  0
 34 35  1  0
 34 53  1  0
 35 36  1  0
 35 52  2  0
 36 37  1  0
 36 51  1  0
 36 73  1  0
 37 38  1  0
 38 39  1  0
 39 40  1  0
 39 50  1  0
 40 41  1  0
 40 49  2  0
 42 43  1  0
 43 44  1  0
 43 47  1  0
 43 48  1  0
 44 45  1  0
 44 46  1  0
 50 51  1  0
 55 56  1  0
 56 57  1  0
 56 61  1  0
 57 58  1  0
 58 59  1  0
 58 71  1  0
 59 60  1  0
 60 61  1  0
 63 64  1  0
 64 65  1  0
 67 68  2  0
 67 72  1  0
 68 69  1  0
 69 70  2  0
 70 71  1  0
 71 72  2  0
  1 74  1  0
  1 75  1  0
  1 76  1  0
  2 77  1  1
  4 78  1  0
  4 79  1  0
  4 80  1  0
  7 81  1  0
  8 82  1  0
  9 83  1  0
 13 84  1  0
 13 85  1  0
 14 86  1  0
 14 87  1  0
 14 88  1  0
 16 89  1  0
 16 90  1  0
 18 91  1  0
 18 92  1  0
 18 93  1  0
 19 94  1  0
 19 95  1  0
 19 96  1  0
 20 97  1  0
 20 98  1  0
 23 99  1  1
 24100  1  0
 27101  1  6
 28102  1  0
 30103  1  1
 31104  1  0
 32105  1  0
 32106  1  0
 32107  1  0
 33108  1  0
 33109  1  0
 33110  1  0
 37111  1  0
 37112  1  0
 38113  1  0
 38114  1  0
 45115  1  0
 45116  1  0
 45117  1  0
 46118  1  0
 46119  1  0
 46120  1  0
 47121  1  0
 47122  1  0
 47123  1  0
 48124  1  0
 48125  1  0
 48126  1  0
 50127  1  0
 50128  1  0
 51129  1  0
 51130  1  0
 53131  1  0
 53132  1  0
 53133  1  0
 55134  1  0
 55135  1  0
 56136  1  1
 57137  1  0
 57138  1  0
 59139  1  0
 59140  1  0
 60141  1  0
 60142  1  0
 63143  1  0
 63144  1  0
 64145  1  0
 64146  1  0
 65147  1  0
 65148  1  0
 69149  1  0
 70150  1  0
 72151  1  0
 41 42  3  0
M  END
$$$$
