 xtb: 6.7.1 (edcfbbe)
          08072518013D

151157  0     0  0            999 V2000
   16.6594   22.6191   60.8537 C   0  0  0  0  0  0  0  0  0  0  0  0
   16.1072   23.9473   60.3400 C   0  0  0  0  0  0  0  0  0  0  0  0
   16.5310   25.0481   61.1316 O   0  0  0  0  0  0  0  0  0  0  0  0
   17.8127   25.5284   60.8243 C   0  0  0  0  0  0  0  0  0  0  0  0
   14.5908   23.9617   60.3649 C   0  0  0  0  0  0  0  0  0  0  0  0
   13.9920   23.1187   61.1878 N   0  0  0  0  0  0  0  0  0  0  0  0
   12.6732   23.0919   61.2414 C   0  0  0  0  0  0  0  0  0  0  0  0
   11.8674   23.8968   60.4527 C   0  0  0  0  0  0  0  0  0  0  0  0
   12.4854   24.7798   59.5838 C   0  0  0  0  0  0  0  0  0  0  0  0
   13.8747   24.8406   59.5391 C   0  0  0  0  0  0  0  0  0  0  0  0
   14.5677   25.7582   58.6225 C   0  0  0  0  0  0  0  0  0  0  0  0
   14.7760   25.3930   57.3110 N   0  0  0  0  0  0  0  0  0  0  0  0
   14.3221   24.1813   56.6833 C   0  0  0  0  0  0  0  0  0  0  0  0
   13.0348   24.3969   55.8883 C   0  0  0  0  0  0  0  0  0  0  0  0
   15.1337   26.9853   58.8732 C   0  0  0  0  0  0  0  0  0  0  0  0
   15.1254   27.7049   60.1837 C   0  0  0  0  0  0  0  0  0  0  0  0
   13.9938   28.7421   60.3750 C   0  0  0  0  0  0  0  0  0  0  0  0
   12.6432   28.1752   59.9429 C   0  0  0  0  0  0  0  0  0  0  0  0
   13.9308   29.1302   61.8544 C   0  0  0  0  0  0  0  0  0  0  0  0
   14.2721   29.9970   59.5412 C   0  0  0  0  0  0  0  0  0  0  0  0
   15.4568   30.6363   60.0267 O   0  0  0  0  0  0  0  0  0  0  0  0
   15.9393   31.6332   59.3020 C   0  0  0  0  0  0  0  0  0  0  0  0
   17.2355   32.1815   59.8807 C   0  0  0  0  0  0  0  0  0  0  0  0
   17.3972   33.5866   59.5473 N   0  0  0  0  0  0  0  0  0  0  0  0
   18.7299   33.9548   59.7489 N   0  0  0  0  0  0  0  0  0  0  0  0
   19.7363   33.7733   58.8615 C   0  0  0  0  0  0  0  0  0  0  0  0
   19.3145   33.3820   57.4309 C   0  0  0  0  0  0  0  0  0  0  0  0
   19.3543   34.5524   56.5842 N   0  0  0  0  0  0  0  0  0  0  0  0
   18.2694   35.3209   56.4132 C   0  0  0  0  0  0  0  0  0  0  0  0
   18.4744   36.3879   55.3350 C   0  0  0  0  0  0  0  0  0  0  0  0
   17.5195   37.5780   55.4787 C   0  0  0  0  0  0  0  0  0  0  0  0
   17.6166   38.4960   54.2637 C   0  0  0  0  0  0  0  0  0  0  0  0
   17.8818   38.3348   56.7556 C   0  0  0  0  0  0  0  0  0  0  0  0
   18.3731   35.6890   54.0514 N   0  0  0  0  0  0  0  0  0  0  0  0
   19.5343   35.3339   53.4749 C   0  0  0  0  0  0  0  0  0  0  0  0
   19.5622   34.6997   52.0769 C   0  0  0  0  0  0  0  0  0  0  0  0
   19.7426   35.8287   51.0535 C   0  0  0  0  0  0  0  0  0  0  0  0
   19.9406   35.2472   49.6526 C   0  0  0  0  0  0  0  0  0  0  0  0
   21.0336   34.3055   49.6458 N   0  0  0  0  0  0  0  0  0  0  0  0
   22.1487   34.5625   48.9179 C   0  0  0  0  0  0  0  0  0  0  0  0
   23.1876   33.5638   49.0087 C   0  0  0  0  0  0  0  0  0  0  0  0
   24.1449   32.8349   48.9705 C   0  0  0  0  0  0  0  0  0  0  0  0
   25.2549   31.8954   48.8429 C   0  0  0  0  0  0  0  0  0  0  0  0
   25.7035   31.4703   50.1735 N   0  0  0  0  0  0  0  0  0  0  0  0
   24.6459   31.0983   51.0862 C   0  0  0  0  0  0  0  0  0  0  0  0
   26.7499   30.4718   50.1699 C   0  0  0  0  0  0  0  0  0  0  0  0
   26.3902   32.6586   48.1383 C   0  0  0  0  0  0  0  0  0  0  0  0
   24.7583   30.7448   47.9396 C   0  0  0  0  0  0  0  0  0  0  0  0
   22.2678   35.5417   48.2043 O   0  0  0  0  0  0  0  0  0  0  0  0
   20.8691   33.1981   50.5519 C   0  0  0  0  0  0  0  0  0  0  0  0
   20.7232   33.7057   51.9874 C   0  0  0  0  0  0  0  0  0  0  0  0
   20.6178   35.6031   53.9801 O   0  0  0  0  0  0  0  0  0  0  0  0
   17.0717   35.1588   53.6999 C   0  0  0  0  0  0  0  0  0  0  0  0
   17.2167   35.1408   56.9991 O   0  0  0  0  0  0  0  0  0  0  0  0
   20.2211   32.2706   56.8984 C   0  0  0  0  0  0  0  0  0  0  0  0
   19.5190   31.3461   55.9001 C   0  0  0  0  0  0  0  0  0  0  0  0
   18.3840   30.5334   56.5458 C   0  0  0  0  0  0  0  0  0  0  0  0
   17.7969   29.6719   55.5418 N   0  0  0  0  0  0  0  0  0  0  0  0
   17.2755   30.4836   54.4549 C   0  0  0  0  0  0  0  0  0  0  0  0
   18.4281   31.2828   53.8516 C   0  0  0  0  0  0  0  0  0  0  0  0
   19.0364   32.1148   54.8143 O   0  0  0  0  0  0  0  0  0  0  0  0
   20.9019   33.9675   59.1520 O   0  0  0  0  0  0  0  0  0  0  0  0
   19.0018   34.0171   61.1735 C   0  0  0  0  0  0  0  0  0  0  0  0
   18.7645   32.6321   61.7895 C   0  0  0  0  0  0  0  0  0  0  0  0
   17.3841   32.0902   61.4024 C   0  0  0  0  0  0  0  0  0  0  0  0
   15.4664   32.0199   58.2642 O   0  0  0  0  0  0  0  0  0  0  0  0
   15.7451   27.4006   57.6496 C   0  0  0  0  0  0  0  0  0  0  0  0
   15.4860   26.3880   56.6968 C   0  0  0  0  0  0  0  0  0  0  0  0
   15.9549   26.4883   55.3924 C   0  0  0  0  0  0  0  0  0  0  0  0
   16.6901   27.5985   55.0544 C   0  0  0  0  0  0  0  0  0  0  0  0
   16.9759   28.6163   55.9847 C   0  0  0  0  0  0  0  0  0  0  0  0
   16.5074   28.5126   57.2831 C   0  0  0  0  0  0  0  0  0  0  0  0
   18.3986   34.0081   51.7543 F   0  0  0  0  0  0  0  0  0  0  0  0
   16.3400   22.4729   61.8805 H   0  0  0  0  0  0  0  0  0  0  0  0
   16.2775   21.8035   60.2466 H   0  0  0  0  0  0  0  0  0  0  0  0
   17.7454   22.6156   60.8076 H   0  0  0  0  0  0  0  0  0  0  0  0
   16.4397   24.1108   59.3001 H   0  0  0  0  0  0  0  0  0  0  0  0
   17.9774   26.3868   61.4727 H   0  0  0  0  0  0  0  0  0  0  0  0
   18.5910   24.7815   61.0157 H   0  0  0  0  0  0  0  0  0  0  0  0
   17.8743   25.8467   59.7755 H   0  0  0  0  0  0  0  0  0  0  0  0
   12.2506   22.3826   61.9406 H   0  0  0  0  0  0  0  0  0  0  0  0
   10.7919   23.8336   60.5111 H   0  0  0  0  0  0  0  0  0  0  0  0
   11.8980   25.4211   58.9423 H   0  0  0  0  0  0  0  0  0  0  0  0
   15.1114   23.8207   56.0158 H   0  0  0  0  0  0  0  0  0  0  0  0
   14.1590   23.4285   57.4603 H   0  0  0  0  0  0  0  0  0  0  0  0
   12.2275   24.7029   56.5487 H   0  0  0  0  0  0  0  0  0  0  0  0
   13.1806   25.1712   55.1391 H   0  0  0  0  0  0  0  0  0  0  0  0
   12.7457   23.4753   55.3902 H   0  0  0  0  0  0  0  0  0  0  0  0
   15.0431   26.9592   60.9763 H   0  0  0  0  0  0  0  0  0  0  0  0
   16.0771   28.2248   60.3110 H   0  0  0  0  0  0  0  0  0  0  0  0
   12.4214   27.2789   60.5158 H   0  0  0  0  0  0  0  0  0  0  0  0
   11.8522   28.9015   60.1173 H   0  0  0  0  0  0  0  0  0  0  0  0
   12.6539   27.9248   58.8849 H   0  0  0  0  0  0  0  0  0  0  0  0
   14.8860   29.5301   62.1828 H   0  0  0  0  0  0  0  0  0  0  0  0
   13.1668   29.8874   62.0171 H   0  0  0  0  0  0  0  0  0  0  0  0
   13.6906   28.2607   62.4611 H   0  0  0  0  0  0  0  0  0  0  0  0
   14.4061   29.7465   58.4841 H   0  0  0  0  0  0  0  0  0  0  0  0
   13.4417   30.7072   59.6204 H   0  0  0  0  0  0  0  0  0  0  0  0
   18.0350   31.5624   59.4192 H   0  0  0  0  0  0  0  0  0  0  0  0
   17.0321   33.8809   58.6421 H   0  0  0  0  0  0  0  0  0  0  0  0
   18.2749   33.0478   57.4222 H   0  0  0  0  0  0  0  0  0  0  0  0
   20.1994   34.7437   56.0646 H   0  0  0  0  0  0  0  0  0  0  0  0
   19.5025   36.7601   55.3925 H   0  0  0  0  0  0  0  0  0  0  0  0
   16.4933   37.2158   55.5875 H   0  0  0  0  0  0  0  0  0  0  0  0
   16.9865   39.3705   54.4052 H   0  0  0  0  0  0  0  0  0  0  0  0
   18.6430   38.8296   54.1258 H   0  0  0  0  0  0  0  0  0  0  0  0
   17.2963   37.9873   53.3582 H   0  0  0  0  0  0  0  0  0  0  0  0
   17.8000   37.6801   57.6192 H   0  0  0  0  0  0  0  0  0  0  0  0
   18.8995   38.7158   56.7007 H   0  0  0  0  0  0  0  0  0  0  0  0
   17.2060   39.1746   56.8968 H   0  0  0  0  0  0  0  0  0  0  0  0
   18.8652   36.4775   51.0631 H   0  0  0  0  0  0  0  0  0  0  0  0
   20.6154   36.4133   51.3459 H   0  0  0  0  0  0  0  0  0  0  0  0
   19.0246   34.7344   49.3358 H   0  0  0  0  0  0  0  0  0  0  0  0
   20.1774   36.0393   48.9395 H   0  0  0  0  0  0  0  0  0  0  0  0
   25.0859   30.9378   52.0703 H   0  0  0  0  0  0  0  0  0  0  0  0
   23.9269   31.9114   51.1618 H   0  0  0  0  0  0  0  0  0  0  0  0
   24.1152   30.1770   50.7957 H   0  0  0  0  0  0  0  0  0  0  0  0
   27.1651   30.4147   51.1767 H   0  0  0  0  0  0  0  0  0  0  0  0
   26.3938   29.4675   49.8926 H   0  0  0  0  0  0  0  0  0  0  0  0
   27.5484   30.7631   49.4936 H   0  0  0  0  0  0  0  0  0  0  0  0
   26.8591   33.3402   48.8427 H   0  0  0  0  0  0  0  0  0  0  0  0
   27.1398   31.9771   47.7448 H   0  0  0  0  0  0  0  0  0  0  0  0
   25.9838   33.2350   47.3108 H   0  0  0  0  0  0  0  0  0  0  0  0
   25.5730   30.0598   47.7181 H   0  0  0  0  0  0  0  0  0  0  0  0
   23.9529   30.1964   48.4238 H   0  0  0  0  0  0  0  0  0  0  0  0
   24.3819   31.1521   47.0048 H   0  0  0  0  0  0  0  0  0  0  0  0
   19.9643   32.6436   50.2711 H   0  0  0  0  0  0  0  0  0  0  0  0
   21.7290   32.5319   50.4686 H   0  0  0  0  0  0  0  0  0  0  0  0
   21.6304   34.2162   52.3097 H   0  0  0  0  0  0  0  0  0  0  0  0
   20.5300   32.8753   52.6674 H   0  0  0  0  0  0  0  0  0  0  0  0
   16.3469   35.5072   54.4291 H   0  0  0  0  0  0  0  0  0  0  0  0
   16.7629   35.4875   52.7074 H   0  0  0  0  0  0  0  0  0  0  0  0
   17.0769   34.0689   53.7294 H   0  0  0  0  0  0  0  0  0  0  0  0
   21.0887   32.7251   56.4180 H   0  0  0  0  0  0  0  0  0  0  0  0
   20.5856   31.6665   57.7310 H   0  0  0  0  0  0  0  0  0  0  0  0
   20.2584   30.6214   55.5135 H   0  0  0  0  0  0  0  0  0  0  0  0
   18.8049   29.9158   57.3424 H   0  0  0  0  0  0  0  0  0  0  0  0
   17.6274   31.2155   56.9644 H   0  0  0  0  0  0  0  0  0  0  0  0
   16.8279   29.8470   53.6930 H   0  0  0  0  0  0  0  0  0  0  0  0
   16.5085   31.1841   54.8274 H   0  0  0  0  0  0  0  0  0  0  0  0
   19.1753   30.5832   53.4440 H   0  0  0  0  0  0  0  0  0  0  0  0
   18.0701   31.9365   53.0555 H   0  0  0  0  0  0  0  0  0  0  0  0
   20.0349   34.3360   61.3100 H   0  0  0  0  0  0  0  0  0  0  0  0
   18.3202   34.7505   61.6084 H   0  0  0  0  0  0  0  0  0  0  0  0
   19.5368   31.9507   61.4239 H   0  0  0  0  0  0  0  0  0  0  0  0
   18.8528   32.6946   62.8742 H   0  0  0  0  0  0  0  0  0  0  0  0
   16.6043   32.6987   61.8613 H   0  0  0  0  0  0  0  0  0  0  0  0
   17.2710   31.0600   61.7391 H   0  0  0  0  0  0  0  0  0  0  0  0
   15.7646   25.7152   54.6628 H   0  0  0  0  0  0  0  0  0  0  0  0
   17.0864   27.6869   54.0545 H   0  0  0  0  0  0  0  0  0  0  0  0
   16.7264   29.2709   58.0174 H   0  0  0  0  0  0  0  0  0  0  0  0
  1  2  1  0  0  0  0
  2  3  1  0  0  0  0
  3  4  1  0  0  0  0
  2  5  1  0  0  0  0
  5  6  4  0  0  0  0
  6  7  4  0  0  0  0
  7  8  4  0  0  0  0
  8  9  4  0  0  0  0
  5 10  4  0  0  0  0
  9 10  4  0  0  0  0
 10 11  1  0  0  0  0
 11 12  1  0  0  0  0
 12 13  1  0  0  0  0
 13 14  1  0  0  0  0
 11 15  2  0  0  0  0
 15 16  1  0  0  0  0
 16 17  1  0  0  0  0
 17 18  1  0  0  0  0
 17 19  1  0  0  0  0
 17 20  1  0  0  0  0
 20 21  1  0  0  0  0
 21 22  1  0  0  0  0
 22 23  1  0  0  0  0
 23 24  1  0  0  0  0
 24 25  1  0  0  0  0
 25 26  4  0  0  0  0
 26 27  1  0  0  0  0
 27 28  1  0  0  0  0
 28 29  4  0  0  0  0
 29 30  1  0  0  0  0
 30 31  1  0  0  0  0
 31 32  1  0  0  0  0
 31 33  1  0  0  0  0
 30 34  1  0  0  0  0
 34 35  4  0  0  0  0
 35 36  1  0  0  0  0
 36 37  1  0  0  0  0
 37 38  1  0  0  0  0
 38 39  1  0  0  0  0
 39 40  4  0  0  0  0
 40 41  1  0  0  0  0
 41 42  3  0  0  0  0
 42 43  1  0  0  0  0
 43 44  1  0  0  0  0
 44 45  1  0  0  0  0
 44 46  1  0  0  0  0
 43 47  1  0  0  0  0
 43 48  1  0  0  0  0
 40 49  2  0  0  0  0
 39 50  1  0  0  0  0
 36 51  1  0  0  0  0
 50 51  1  0  0  0  0
 35 52  2  0  0  0  0
 34 53  1  0  0  0  0
 29 54  2  0  0  0  0
 27 55  1  0  0  0  0
 55 56  1  0  0  0  0
 56 57  1  0  0  0  0
 57 58  1  0  0  0  0
 58 59  1  0  0  0  0
 59 60  1  0  0  0  0
 56 61  1  0  0  0  0
 60 61  1  0  0  0  0
 26 62  2  0  0  0  0
 25 63  1  0  0  0  0
 63 64  1  0  0  0  0
 23 65  1  0  0  0  0
 64 65  1  0  0  0  0
 22 66  2  0  0  0  0
 15 67  4  0  0  0  0
 12 68  1  0  0  0  0
 67 68  4  0  0  0  0
 68 69  4  0  0  0  0
 69 70  2  0  0  0  0
 58 71  1  0  0  0  0
 70 71  4  0  0  0  0
 67 72  4  0  0  0  0
 71 72  4  0  0  0  0
 36 73  1  0  0  0  0
  1 74  1  0  0  0  0
  1 75  1  0  0  0  0
  1 76  1  0  0  0  0
  2 77  1  0  0  0  0
  4 78  1  0  0  0  0
  4 79  1  0  0  0  0
  4 80  1  0  0  0  0
  7 81  1  0  0  0  0
  8 82  1  0  0  0  0
  9 83  1  0  0  0  0
 13 84  1  0  0  0  0
 13 85  1  0  0  0  0
 14 86  1  0  0  0  0
 14 87  1  0  0  0  0
 14 88  1  0  0  0  0
 16 89  1  0  0  0  0
 16 90  1  0  0  0  0
 18 91  1  0  0  0  0
 18 92  1  0  0  0  0
 18 93  1  0  0  0  0
 19 94  1  0  0  0  0
 19 95  1  0  0  0  0
 19 96  1  0  0  0  0
 20 97  1  0  0  0  0
 20 98  1  0  0  0  0
 23 99  1  0  0  0  0
 24100  1  0  0  0  0
 27101  1  0  0  0  0
 28102  1  0  0  0  0
 30103  1  0  0  0  0
 31104  1  0  0  0  0
 32105  1  0  0  0  0
 32106  1  0  0  0  0
 32107  1  0  0  0  0
 33108  1  0  0  0  0
 33109  1  0  0  0  0
 33110  1  0  0  0  0
 37111  1  0  0  0  0
 37112  1  0  0  0  0
 38113  1  0  0  0  0
 38114  1  0  0  0  0
 45115  1  0  0  0  0
 45116  1  0  0  0  0
 45117  1  0  0  0  0
 46118  1  0  0  0  0
 46119  1  0  0  0  0
 46120  1  0  0  0  0
 47121  1  0  0  0  0
 47122  1  0  0  0  0
 47123  1  0  0  0  0
 48124  1  0  0  0  0
 48125  1  0  0  0  0
 48126  1  0  0  0  0
 50127  1  0  0  0  0
 50128  1  0  0  0  0
 51129  1  0  0  0  0
 51130  1  0  0  0  0
 53131  1  0  0  0  0
 53132  1  0  0  0  0
 53133  1  0  0  0  0
 55134  1  0  0  0  0
 55135  1  0  0  0  0
 56136  1  0  0  0  0
 57137  1  0  0  0  0
 57138  1  0  0  0  0
 59139  1  0  0  0  0
 59140  1  0  0  0  0
 60141  1  0  0  0  0
 60142  1  0  0  0  0
 63143  1  0  0  0  0
 63144  1  0  0  0  0
 64145  1  0  0  0  0
 64146  1  0  0  0  0
 65147  1  0  0  0  0
 65148  1  0  0  0  0
 69149  1  0  0  0  0
 70150  1  0  0  0  0
 72151  1  0  0  0  0
M  END
