 xtb: 6.7.1 (edcfbbe)
          08232519323D

151157  0     0  0            999 V2000
   -3.1858   -0.3796    5.1585 C   0  0  0  0  0  0  0  0  0  0  0  0
   -2.3553   -1.5013    4.5422 C   0  0  0  0  0  0  0  0  0  0  0  0
   -3.2747   -2.5239    4.1969 O   0  0  0  0  0  0  0  0  0  0  0  0
   -2.6975   -3.6862    3.6539 C   0  0  0  0  0  0  0  0  0  0  0  0
   -1.3059   -1.9975    5.5188 C   0  0  0  0  0  0  0  0  0  0  0  0
   -1.7577   -2.3401    6.7153 N   0  0  0  0  0  0  0  0  0  0  0  0
   -0.9335   -2.8656    7.5998 C   0  0  0  0  0  0  0  0  0  0  0  0
    0.4067   -3.1003    7.3341 C   0  0  0  0  0  0  0  0  0  0  0  0
    0.8936   -2.7272    6.0953 C   0  0  0  0  0  0  0  0  0  0  0  0
    0.0415   -2.1470    5.1555 C   0  0  0  0  0  0  0  0  0  0  0  0
    0.5775   -1.7196    3.8569 C   0  0  0  0  0  0  0  0  0  0  0  0
    1.0630   -2.6366    2.9527 N   0  0  0  0  0  0  0  0  0  0  0  0
    1.0329   -4.0700    3.0730 C   0  0  0  0  0  0  0  0  0  0  0  0
    2.4273   -4.6559    3.2927 C   0  0  0  0  0  0  0  0  0  0  0  0
    0.7299   -0.4406    3.3629 C   0  0  0  0  0  0  0  0  0  0  0  0
    0.3581    0.8623    3.9980 C   0  0  0  0  0  0  0  0  0  0  0  0
    1.4383    1.5034    4.9011 C   0  0  0  0  0  0  0  0  0  0  0  0
    1.8175    0.5437    6.0304 C   0  0  0  0  0  0  0  0  0  0  0  0
    0.8673    2.7891    5.5043 C   0  0  0  0  0  0  0  0  0  0  0  0
    2.7276    1.8093    4.1122 C   0  0  0  0  0  0  0  0  0  0  0  0
    2.7287    3.0633    3.4164 O   0  0  0  0  0  0  0  0  0  0  0  0
    3.3673    4.0708    4.0065 C   0  0  0  0  0  0  0  0  0  0  0  0
    3.4795    5.2857    3.0928 C   0  0  0  0  0  0  0  0  0  0  0  0
    2.2071    5.7115    2.5271 N   0  0  0  0  0  0  0  0  0  0  0  0
    2.4424    6.6664    1.5297 N   0  0  0  0  0  0  0  0  0  0  0  0
    2.7228    6.4095    0.2311 C   0  0  0  0  0  0  0  0  0  0  0  0
    2.5159    4.9536   -0.2299 C   0  0  0  0  0  0  0  0  0  0  0  0
    1.2348    4.8705   -0.9016 N   0  0  0  0  0  0  0  0  0  0  0  0
    0.1007    4.6280   -0.2320 C   0  0  0  0  0  0  0  0  0  0  0  0
   -1.1694    4.6437   -1.0867 C   0  0  0  0  0  0  0  0  0  0  0  0
   -1.8958    5.9934   -0.9880 C   0  0  0  0  0  0  0  0  0  0  0  0
   -3.0581    6.0301   -1.9799 C   0  0  0  0  0  0  0  0  0  0  0  0
   -0.9275    7.1374   -1.2896 C   0  0  0  0  0  0  0  0  0  0  0  0
   -1.9854    3.4871   -0.7055 N   0  0  0  0  0  0  0  0  0  0  0  0
   -1.5652    2.3278   -1.2442 C   0  0  0  0  0  0  0  0  0  0  0  0
   -2.3007    1.0090   -0.9429 C   0  0  0  0  0  0  0  0  0  0  0  0
   -1.8854    0.4063    0.4040 C   0  0  0  0  0  0  0  0  0  0  0  0
   -2.5554   -0.9591    0.5972 C   0  0  0  0  0  0  0  0  0  0  0  0
   -2.1846   -1.8281   -0.4923 N   0  0  0  0  0  0  0  0  0  0  0  0
   -1.2567   -2.7948   -0.3009 C   0  0  0  0  0  0  0  0  0  0  0  0
   -0.5967   -3.2615   -1.4950 C   0  0  0  0  0  0  0  0  0  0  0  0
    0.1704   -3.5946   -2.3607 C   0  0  0  0  0  0  0  0  0  0  0  0
    1.0721   -4.0093   -3.4332 C   0  0  0  0  0  0  0  0  0  0  0  0
    1.5893   -2.7851   -4.0609 N   0  0  0  0  0  0  0  0  0  0  0  0
    2.6912   -2.9707   -4.9798 C   0  0  0  0  0  0  0  0  0  0  0  0
    0.5623   -1.9582   -4.6616 C   0  0  0  0  0  0  0  0  0  0  0  0
    2.2088   -4.7965   -2.7626 C   0  0  0  0  0  0  0  0  0  0  0  0
    0.2982   -4.9424   -4.3877 C   0  0  0  0  0  0  0  0  0  0  0  0
   -0.9640   -3.2304    0.8004 O   0  0  0  0  0  0  0  0  0  0  0  0
   -2.6103   -1.3460   -1.7808 C   0  0  0  0  0  0  0  0  0  0  0  0
   -1.9948    0.0201   -2.0737 C   0  0  0  0  0  0  0  0  0  0  0  0
   -0.6157    2.2957   -2.0156 O   0  0  0  0  0  0  0  0  0  0  0  0
   -2.8639    3.6257    0.4352 C   0  0  0  0  0  0  0  0  0  0  0  0
    0.0766    4.3984    0.9683 O   0  0  0  0  0  0  0  0  0  0  0  0
    3.6572    4.5157   -1.1461 C   0  0  0  0  0  0  0  0  0  0  0  0
    3.5886    3.0432   -1.5892 C   0  0  0  0  0  0  0  0  0  0  0  0
    2.8169    2.1700   -0.5981 C   0  0  0  0  0  0  0  0  0  0  0  0
    2.7801    0.7915   -1.0417 N   0  0  0  0  0  0  0  0  0  0  0  0
    2.1938    0.7225   -2.3749 C   0  0  0  0  0  0  0  0  0  0  0  0
    2.9783    1.6339   -3.3186 C   0  0  0  0  0  0  0  0  0  0  0  0
    2.9898    2.9704   -2.8684 O   0  0  0  0  0  0  0  0  0  0  0  0
    3.0282    7.2876   -0.5548 O   0  0  0  0  0  0  0  0  0  0  0  0
    2.8682    7.9159    2.1341 C   0  0  0  0  0  0  0  0  0  0  0  0
    4.1896    7.6763    2.8709 C   0  0  0  0  0  0  0  0  0  0  0  0
    4.0485    6.4992    3.8365 C   0  0  0  0  0  0  0  0  0  0  0  0
    3.8845    4.0155    5.0911 O   0  0  0  0  0  0  0  0  0  0  0  0
    1.3189   -0.5852    2.0733 C   0  0  0  0  0  0  0  0  0  0  0  0
    1.4972   -1.9658    1.8444 C   0  0  0  0  0  0  0  0  0  0  0  0
    2.0194   -2.4183    0.6361 C   0  0  0  0  0  0  0  0  0  0  0  0
    2.3925   -1.4866   -0.3041 C   0  0  0  0  0  0  0  0  0  0  0  0
    2.2567   -0.1019   -0.0824 C   0  0  0  0  0  0  0  0  0  0  0  0
    1.6895    0.3431    1.0998 C   0  0  0  0  0  0  0  0  0  0  0  0
   -3.6803    1.2322   -0.9387 F   0  0  0  0  0  0  0  0  0  0  0  0
   -3.6399   -0.7503    6.0721 H   0  0  0  0  0  0  0  0  0  0  0  0
   -2.5639    0.4809    5.3889 H   0  0  0  0  0  0  0  0  0  0  0  0
   -3.9680   -0.0867    4.4642 H   0  0  0  0  0  0  0  0  0  0  0  0
   -1.8414   -1.1521    3.6308 H   0  0  0  0  0  0  0  0  0  0  0  0
   -3.5292   -4.3055    3.3223 H   0  0  0  0  0  0  0  0  0  0  0  0
   -2.0477   -3.4632    2.8007 H   0  0  0  0  0  0  0  0  0  0  0  0
   -2.1219   -4.2396    4.4061 H   0  0  0  0  0  0  0  0  0  0  0  0
   -1.3727   -3.1144    8.5570 H   0  0  0  0  0  0  0  0  0  0  0  0
    1.0496   -3.5516    8.0736 H   0  0  0  0  0  0  0  0  0  0  0  0
    1.9369   -2.8714    5.8521 H   0  0  0  0  0  0  0  0  0  0  0  0
    0.3827   -4.3352    3.9097 H   0  0  0  0  0  0  0  0  0  0  0  0
    0.5948   -4.4740    2.1557 H   0  0  0  0  0  0  0  0  0  0  0  0
    2.8540   -4.3017    4.2283 H   0  0  0  0  0  0  0  0  0  0  0  0
    2.3693   -5.7406    3.3291 H   0  0  0  0  0  0  0  0  0  0  0  0
    3.0933   -4.3673    2.4839 H   0  0  0  0  0  0  0  0  0  0  0  0
    0.1144    1.5749    3.2066 H   0  0  0  0  0  0  0  0  0  0  0  0
   -0.5323    0.7209    4.6129 H   0  0  0  0  0  0  0  0  0  0  0  0
    2.4818    1.0355    6.7374 H   0  0  0  0  0  0  0  0  0  0  0  0
    0.9281    0.2168    6.5635 H   0  0  0  0  0  0  0  0  0  0  0  0
    2.3229   -0.3313    5.6306 H   0  0  0  0  0  0  0  0  0  0  0  0
    1.6211    3.2960    6.1023 H   0  0  0  0  0  0  0  0  0  0  0  0
    0.5303    3.4676    4.7229 H   0  0  0  0  0  0  0  0  0  0  0  0
    0.0208    2.5544    6.1458 H   0  0  0  0  0  0  0  0  0  0  0  0
    3.5753    1.8227    4.8045 H   0  0  0  0  0  0  0  0  0  0  0  0
    2.8905    1.0462    3.3486 H   0  0  0  0  0  0  0  0  0  0  0  0
    4.1922    4.9817    2.2981 H   0  0  0  0  0  0  0  0  0  0  0  0
    1.5853    4.9700    2.2098 H   0  0  0  0  0  0  0  0  0  0  0  0
    2.4736    4.2966    0.6410 H   0  0  0  0  0  0  0  0  0  0  0  0
    1.2390    4.9889   -1.9023 H   0  0  0  0  0  0  0  0  0  0  0  0
   -0.8857    4.4798   -2.1321 H   0  0  0  0  0  0  0  0  0  0  0  0
   -2.2670    6.1296    0.0309 H   0  0  0  0  0  0  0  0  0  0  0  0
   -3.6406    6.9379   -1.8433 H   0  0  0  0  0  0  0  0  0  0  0  0
   -2.6771    6.0190   -2.9989 H   0  0  0  0  0  0  0  0  0  0  0  0
   -3.7179    5.1750   -1.8595 H   0  0  0  0  0  0  0  0  0  0  0  0
   -0.1337    7.1953   -0.5493 H   0  0  0  0  0  0  0  0  0  0  0  0
   -0.4761    7.0162   -2.2720 H   0  0  0  0  0  0  0  0  0  0  0  0
   -1.4661    8.0820   -1.2797 H   0  0  0  0  0  0  0  0  0  0  0  0
   -0.7995    0.2843    0.4035 H   0  0  0  0  0  0  0  0  0  0  0  0
   -2.1553    1.0634    1.2299 H   0  0  0  0  0  0  0  0  0  0  0  0
   -2.2209   -1.4161    1.5280 H   0  0  0  0  0  0  0  0  0  0  0  0
   -3.6438   -0.8464    0.6221 H   0  0  0  0  0  0  0  0  0  0  0  0
    3.5222   -3.4637   -4.4827 H   0  0  0  0  0  0  0  0  0  0  0  0
    2.4205   -3.5433   -5.8802 H   0  0  0  0  0  0  0  0  0  0  0  0
    3.0283   -1.9843   -5.2990 H   0  0  0  0  0  0  0  0  0  0  0  0
   -0.2766   -1.8626   -3.9761 H   0  0  0  0  0  0  0  0  0  0  0  0
    0.9762   -0.9647   -4.8376 H   0  0  0  0  0  0  0  0  0  0  0  0
    0.1971   -2.3505   -5.6227 H   0  0  0  0  0  0  0  0  0  0  0  0
    2.8509   -4.1199   -2.2052 H   0  0  0  0  0  0  0  0  0  0  0  0
    1.7838   -5.5192   -2.0696 H   0  0  0  0  0  0  0  0  0  0  0  0
    2.7996   -5.3354   -3.4989 H   0  0  0  0  0  0  0  0  0  0  0  0
   -0.0303   -5.8258   -3.8464 H   0  0  0  0  0  0  0  0  0  0  0  0
   -0.5785   -4.4440   -4.7942 H   0  0  0  0  0  0  0  0  0  0  0  0
    0.9409   -5.2557   -5.2073 H   0  0  0  0  0  0  0  0  0  0  0  0
   -2.3258   -2.0645   -2.5515 H   0  0  0  0  0  0  0  0  0  0  0  0
   -3.7033   -1.2589   -1.7661 H   0  0  0  0  0  0  0  0  0  0  0  0
   -2.3859    0.4181   -3.0110 H   0  0  0  0  0  0  0  0  0  0  0  0
   -0.9122   -0.0703   -2.1614 H   0  0  0  0  0  0  0  0  0  0  0  0
   -2.2742    3.9034    1.3120 H   0  0  0  0  0  0  0  0  0  0  0  0
   -3.6082    4.3971    0.2433 H   0  0  0  0  0  0  0  0  0  0  0  0
   -3.3933    2.7024    0.6331 H   0  0  0  0  0  0  0  0  0  0  0  0
    3.6611    5.1439   -2.0383 H   0  0  0  0  0  0  0  0  0  0  0  0
    4.5954    4.6862   -0.6154 H   0  0  0  0  0  0  0  0  0  0  0  0
    4.6163    2.6461   -1.6717 H   0  0  0  0  0  0  0  0  0  0  0  0
    3.3178    2.2063    0.3722 H   0  0  0  0  0  0  0  0  0  0  0  0
    1.7925    2.5594   -0.5182 H   0  0  0  0  0  0  0  0  0  0  0  0
    2.2231   -0.3052   -2.7360 H   0  0  0  0  0  0  0  0  0  0  0  0
    1.1527    1.0762   -2.3548 H   0  0  0  0  0  0  0  0  0  0  0  0
    4.0140    1.2700   -3.4104 H   0  0  0  0  0  0  0  0  0  0  0  0
    2.5097    1.6523   -4.3039 H   0  0  0  0  0  0  0  0  0  0  0  0
    2.9830    8.6554    1.3418 H   0  0  0  0  0  0  0  0  0  0  0  0
    2.0903    8.2283    2.8334 H   0  0  0  0  0  0  0  0  0  0  0  0
    4.9666    7.4575    2.1345 H   0  0  0  0  0  0  0  0  0  0  0  0
    4.4781    8.5762    3.4135 H   0  0  0  0  0  0  0  0  0  0  0  0
    3.3564    6.7561    4.6390 H   0  0  0  0  0  0  0  0  0  0  0  0
    5.0093    6.2441    4.2825 H   0  0  0  0  0  0  0  0  0  0  0  0
    2.1216   -3.4719    0.4290 H   0  0  0  0  0  0  0  0  0  0  0  0
    2.8128   -1.8172   -1.2410 H   0  0  0  0  0  0  0  0  0  0  0  0
    1.5184    1.3881    1.2989 H   0  0  0  0  0  0  0  0  0  0  0  0
  1  2  1  0  0  0  0
  2  3  1  0  0  0  0
  3  4  1  0  0  0  0
  2  5  1  0  0  0  0
  5  6  4  0  0  0  0
  6  7  4  0  0  0  0
  7  8  4  0  0  0  0
  8  9  4  0  0  0  0
  5 10  4  0  0  0  0
  9 10  4  0  0  0  0
 10 11  1  0  0  0  0
 11 12  1  0  0  0  0
 12 13  1  0  0  0  0
 13 14  1  0  0  0  0
 11 15  4  0  0  0  0
 15 16  1  0  0  0  0
 16 17  1  0  0  0  0
 17 18  1  0  0  0  0
 17 19  1  0  0  0  0
 17 20  1  0  0  0  0
 20 21  1  0  0  0  0
 21 22  1  0  0  0  0
 22 23  1  0  0  0  0
 23 24  1  0  0  0  0
 24 25  1  0  0  0  0
 25 26  4  0  0  0  0
 26 27  1  0  0  0  0
 27 28  1  0  0  0  0
 28 29  4  0  0  0  0
 29 30  1  0  0  0  0
 30 31  1  0  0  0  0
 31 32  1  0  0  0  0
 31 33  1  0  0  0  0
 30 34  1  0  0  0  0
 34 35  4  0  0  0  0
 35 36  1  0  0  0  0
 36 37  1  0  0  0  0
 37 38  1  0  0  0  0
 38 39  1  0  0  0  0
 39 40  4  0  0  0  0
 40 41  1  0  0  0  0
 41 42  3  0  0  0  0
 42 43  1  0  0  0  0
 43 44  1  0  0  0  0
 44 45  1  0  0  0  0
 44 46  1  0  0  0  0
 43 47  1  0  0  0  0
 43 48  1  0  0  0  0
 40 49  2  0  0  0  0
 39 50  1  0  0  0  0
 36 51  1  0  0  0  0
 50 51  1  0  0  0  0
 35 52  2  0  0  0  0
 34 53  1  0  0  0  0
 29 54  2  0  0  0  0
 27 55  1  0  0  0  0
 55 56  1  0  0  0  0
 56 57  1  0  0  0  0
 57 58  1  0  0  0  0
 58 59  1  0  0  0  0
 59 60  1  0  0  0  0
 56 61  1  0  0  0  0
 60 61  1  0  0  0  0
 26 62  2  0  0  0  0
 25 63  1  0  0  0  0
 63 64  1  0  0  0  0
 23 65  1  0  0  0  0
 64 65  1  0  0  0  0
 22 66  2  0  0  0  0
 15 67  4  0  0  0  0
 12 68  1  0  0  0  0
 67 68  4  0  0  0  0
 68 69  4  0  0  0  0
 69 70  2  0  0  0  0
 58 71  1  0  0  0  0
 70 71  4  0  0  0  0
 67 72  4  0  0  0  0
 71 72  4  0  0  0  0
 36 73  1  0  0  0  0
  1 74  1  0  0  0  0
  1 75  1  0  0  0  0
  1 76  1  0  0  0  0
  2 77  1  0  0  0  0
  4 78  1  0  0  0  0
  4 79  1  0  0  0  0
  4 80  1  0  0  0  0
  7 81  1  0  0  0  0
  8 82  1  0  0  0  0
  9 83  1  0  0  0  0
 13 84  1  0  0  0  0
 13 85  1  0  0  0  0
 14 86  1  0  0  0  0
 14 87  1  0  0  0  0
 14 88  1  0  0  0  0
 16 89  1  0  0  0  0
 16 90  1  0  0  0  0
 18 91  1  0  0  0  0
 18 92  1  0  0  0  0
 18 93  1  0  0  0  0
 19 94  1  0  0  0  0
 19 95  1  0  0  0  0
 19 96  1  0  0  0  0
 20 97  1  0  0  0  0
 20 98  1  0  0  0  0
 23 99  1  0  0  0  0
 24100  1  0  0  0  0
 27101  1  0  0  0  0
 28102  1  0  0  0  0
 30103  1  0  0  0  0
 31104  1  0  0  0  0
 32105  1  0  0  0  0
 32106  1  0  0  0  0
 32107  1  0  0  0  0
 33108  1  0  0  0  0
 33109  1  0  0  0  0
 33110  1  0  0  0  0
 37111  1  0  0  0  0
 37112  1  0  0  0  0
 38113  1  0  0  0  0
 38114  1  0  0  0  0
 45115  1  0  0  0  0
 45116  1  0  0  0  0
 45117  1  0  0  0  0
 46118  1  0  0  0  0
 46119  1  0  0  0  0
 46120  1  0  0  0  0
 47121  1  0  0  0  0
 47122  1  0  0  0  0
 47123  1  0  0  0  0
 48124  1  0  0  0  0
 48125  1  0  0  0  0
 48126  1  0  0  0  0
 50127  1  0  0  0  0
 50128  1  0  0  0  0
 51129  1  0  0  0  0
 51130  1  0  0  0  0
 53131  1  0  0  0  0
 53132  1  0  0  0  0
 53133  1  0  0  0  0
 55134  1  0  0  0  0
 55135  1  0  0  0  0
 56136  1  0  0  0  0
 57137  1  0  0  0  0
 57138  1  0  0  0  0
 59139  1  0  0  0  0
 59140  1  0  0  0  0
 60141  1  0  0  0  0
 60142  1  0  0  0  0
 63143  1  0  0  0  0
 63144  1  0  0  0  0
 64145  1  0  0  0  0
 64146  1  0  0  0  0
 65147  1  0  0  0  0
 65148  1  0  0  0  0
 69149  1  0  0  0  0
 70150  1  0  0  0  0
 72151  1  0  0  0  0
M  END
$$$$
