obj09
  PyMOL3.1          3D                             0

 73 79  0  0  0  0  0  0  0  0999 V2000
   17.7322   22.7836   62.4493 C   0  0  0  0  0  0  0  0  0  0  0  0
   17.1076   23.9300   61.6976 C   0  0  0  0  0  0  0  0  0  0  0  0
   17.5191   25.1460   62.1808 O   0  0  0  0  0  0  0  0  0  0  0  0
   18.8889   25.4686   62.0668 C   0  0  0  0  0  0  0  0  0  0  0  0
   15.6353   23.9087   61.7938 C   0  0  0  0  0  0  0  0  0  0  0  0
   15.1175   23.3440   62.8646 N   0  0  0  0  0  0  0  0  0  0  0  0
   13.7964   23.1897   63.0030 C   0  0  0  0  0  0  0  0  0  0  0  0
   12.9309   23.6292   62.0068 C   0  0  0  0  0  0  0  0  0  0  0  0
   13.4644   24.2452   60.8846 C   0  0  0  0  0  0  0  0  0  0  0  0
   14.8253   24.4098   60.7863 C   0  0  0  0  0  0  0  0  0  0  0  0
   15.4069   25.1531   59.6764 C   0  0  0  0  0  0  0  0  0  0  0  0
   15.9265   24.6113   58.5312 N   0  0  0  0  0  0  0  0  0  0  0  0
   16.0091   23.1953   58.1942 C   0  0  0  0  0  0  0  0  0  0  0  0
   14.9747   22.8422   57.1359 C   0  0  0  0  0  0  0  0  0  0  0  0
   15.5875   26.5313   59.6458 C   0  0  0  0  0  0  0  0  0  0  0  0
   15.2122   27.4801   60.7165 C   0  0  0  0  0  0  0  0  0  0  0  0
   13.7831   28.1166   60.5789 C   0  0  0  0  0  0  0  0  0  0  0  0
   12.8243   27.2571   59.7859 C   0  0  0  0  0  0  0  0  0  0  0  0
   13.1855   28.3684   61.9848 C   0  0  0  0  0  0  0  0  0  0  0  0
   13.8755   29.4302   59.8502 C   0  0  0  0  0  0  0  0  0  0  0  0
   15.0236   30.1310   60.1641 O   0  0  0  0  0  0  0  0  0  0  0  0
   15.1344   31.3775   59.7561 C   0  0  0  0  0  0  0  0  0  0  0  0
   16.3927   32.0295   60.1735 C   0  0  0  0  0  0  0  0  0  0  0  0
   16.5671   33.2119   59.3655 N   0  0  0  0  0  0  0  0  0  0  0  0
   17.6473   33.9528   59.7243 N   0  0  0  0  0  0  0  0  0  0  0  0
   18.7154   34.0827   58.9022 C   0  0  0  0  0  0  0  0  0  0  0  0
   18.6732   33.4104   57.5428 C   0  0  0  0  0  0  0  0  0  0  0  0
   19.3197   34.2064   56.5274 N   0  0  0  0  0  0  0  0  0  0  0  0
   18.7431   35.2194   55.8718 C   0  0  0  0  0  0  0  0  0  0  0  0
   19.6228   35.8971   54.8544 C   0  0  0  0  0  0  0  0  0  0  0  0
   19.8363   37.4266   55.0745 C   0  0  0  0  0  0  0  0  0  0  0  0
   20.7471   37.9753   53.9905 C   0  0  0  0  0  0  0  0  0  0  0  0
   20.4702   37.6788   56.4404 C   0  0  0  0  0  0  0  0  0  0  0  0
   19.0646   35.7043   53.5430 N   0  0  0  0  0  0  0  0  0  0  0  0
   19.7521   34.9176   52.6845 C   0  0  0  0  0  0  0  0  0  0  0  0
   19.3223   34.8854   51.2442 C   0  0  0  0  0  0  0  0  0  0  0  0
   19.6148   36.2411   50.6649 C   0  0  0  0  0  0  0  0  0  0  0  0
   19.1913   36.3331   49.2301 C   0  0  0  0  0  0  0  0  0  0  0  0
   20.0195   35.4006   48.5866 N   0  0  0  0  0  0  0  0  0  0  0  0
   21.0530   35.9596   47.8970 C   0  0  0  0  0  0  0  0  0  0  0  0
   22.2495   35.2570   47.8208 C   0  0  0  0  0  0  0  0  0  0  0  0
   22.9838   34.6235   47.2864 C   0  0  0  0  0  0  0  0  0  0  0  0
   24.3438   34.0768   47.5888 C   0  0  0  0  0  0  0  0  0  0  0  0
   25.0086   35.0375   48.4742 N   0  0  0  0  0  0  0  0  0  0  0  0
   24.5919   35.1076   49.8381 C   0  0  0  0  0  0  0  0  0  0  0  0
   26.3456   35.4828   48.1946 C   0  0  0  0  0  0  0  0  0  0  0  0
   25.0903   33.9391   46.2799 C   0  0  0  0  0  0  0  0  0  0  0  0
   24.2596   32.7029   48.2640 C   0  0  0  0  0  0  0  0  0  0  0  0
   20.9911   37.0663   47.4102 O   0  0  0  0  0  0  0  0  0  0  0  0
   19.7929   34.0025   48.9645 C   0  0  0  0  0  0  0  0  0  0  0  0
   20.0840   33.8428   50.4252 C   0  0  0  0  0  0  0  0  0  0  0  0
   20.7215   34.2759   53.0606 O   0  0  0  0  0  0  0  0  0  0  0  0
   17.8022   36.3861   53.2349 C   0  0  0  0  0  0  0  0  0  0  0  0
   17.5850   35.5405   56.0791 O   0  0  0  0  0  0  0  0  0  0  0  0
   19.4177   32.0906   57.6968 C   0  0  0  0  0  0  0  0  0  0  0  0
   19.2086   31.1047   56.6182 C   0  0  0  0  0  0  0  0  0  0  0  0
   17.8882   30.3913   56.8499 C   0  0  0  0  0  0  0  0  0  0  0  0
   17.8864   29.1854   56.0458 N   0  0  0  0  0  0  0  0  0  0  0  0
   18.1267   29.4568   54.6292 C   0  0  0  0  0  0  0  0  0  0  0  0
   19.2771   30.4655   54.3804 C   0  0  0  0  0  0  0  0  0  0  0  0
   19.2190   31.5817   55.3143 O   0  0  0  0  0  0  0  0  0  0  0  0
   19.7218   34.6287   59.2512 O   0  0  0  0  0  0  0  0  0  0  0  0
   17.6121   34.4730   61.1062 C   0  0  0  0  0  0  0  0  0  0  0  0
   17.5091   33.2440   62.0286 C   0  0  0  0  0  0  0  0  0  0  0  0
   16.3409   32.3988   61.6623 C   0  0  0  0  0  0  0  0  0  0  0  0
   14.2837   31.9366   59.1129 O   0  0  0  0  0  0  0  0  0  0  0  0
   16.2463   26.8083   58.4209 C   0  0  0  0  0  0  0  0  0  0  0  0
   16.4232   25.6161   57.7463 C   0  0  0  0  0  0  0  0  0  0  0  0
   17.0765   25.6148   56.4945 C   0  0  0  0  0  0  0  0  0  0  0  0
   17.5474   26.8105   55.9441 C   0  0  0  0  0  0  0  0  0  0  0  0
   17.3783   28.0030   56.6083 C   0  0  0  0  0  0  0  0  0  0  0  0
   16.7292   28.0146   57.8832 C   0  0  0  0  0  0  0  0  0  0  0  0
   17.9940   34.5366   51.1465 F   0  0  0  0  0  0  0  0  0  0  0  0
  1  2  1  0  0  0  0
  2  3  1  0  0  0  0
  2  5  1  0  0  0  0
  3  4  1  0  0  0  0
  5  6  4  0  0  0  0
  5 10  4  0  0  0  0
  6  7  4  0  0  0  0
  7  8  4  0  0  0  0
  8  9  4  0  0  0  0
  9 10  4  0  0  0  0
 10 11  1  0  0  0  0
 11 12  4  0  0  0  0
 11 15  4  0  0  0  0
 12 13  1  0  0  0  0
 12 68  4  0  0  0  0
 13 14  1  0  0  0  0
 15 16  1  0  0  0  0
 15 67  4  0  0  0  0
 16 17  1  0  0  0  0
 17 18  1  0  0  0  0
 17 19  1  0  0  0  0
 17 20  1  0  0  0  0
 20 21  1  0  0  0  0
 21 22  1  0  0  0  0
 22 23  1  0  0  0  0
 22 66  2  0  0  0  0
 23 24  1  0  0  0  0
 23 65  1  0  0  0  0
 24 25  1  0  0  0  0
 25 26  1  0  0  0  0
 25 63  1  0  0  0  0
 26 27  1  0  0  0  0
 26 62  2  0  0  0  0
 27 28  1  0  0  0  0
 27 55  1  0  0  0  0
 28 29  1  0  0  0  0
 29 30  1  0  0  0  0
 29 54  2  0  0  0  0
 30 31  1  0  0  0  0
 30 34  1  0  0  0  0
 31 32  1  0  0  0  0
 31 33  1  0  0  0  0
 34 35  1  0  0  0  0
 34 53  1  0  0  0  0
 35 36  1  0  0  0  0
 35 52  2  0  0  0  0
 36 37  1  0  0  0  0
 36 51  1  0  0  0  0
 36 73  1  0  0  0  0
 37 38  1  0  0  0  0
 38 39  1  0  0  0  0
 39 40  1  0  0  0  0
 39 50  1  0  0  0  0
 40 41  1  0  0  0  0
 40 49  2  0  0  0  0
 41 42  1  0  0  0  0
 42 43  1  0  0  0  0
 43 44  1  0  0  0  0
 43 47  1  0  0  0  0
 43 48  1  0  0  0  0
 44 45  1  0  0  0  0
 44 46  1  0  0  0  0
 50 51  1  0  0  0  0
 55 56  1  0  0  0  0
 56 57  1  0  0  0  0
 56 61  1  0  0  0  0
 57 58  1  0  0  0  0
 58 59  1  0  0  0  0
 58 71  1  0  0  0  0
 59 60  1  0  0  0  0
 60 61  1  0  0  0  0
 63 64  1  0  0  0  0
 64 65  1  0  0  0  0
 67 68  4  0  0  0  0
 67 72  4  0  0  0  0
 68 69  4  0  0  0  0
 69 70  4  0  0  0  0
 70 71  4  0  0  0  0
 71 72  4  0  0  0  0
M  END
$$$$
