obj02
  PyMOL3.1          3D                             0

 73 79  0  0  0  0  0  0  0  0999 V2000
   16.4887   22.4626   62.6580 C   0  0  0  0  0  0  0  0  0  0  0  0
   16.0658   23.5148   61.6515 C   0  0  0  0  0  0  0  0  0  0  0  0
   16.4219   24.7591   62.1341 O   0  0  0  0  0  0  0  0  0  0  0  0
   17.7999   25.1242   62.0124 C   0  0  0  0  0  0  0  0  0  0  0  0
   14.5860   23.4893   61.4034 C   0  0  0  0  0  0  0  0  0  0  0  0
   13.8428   22.8769   62.3193 N   0  0  0  0  0  0  0  0  0  0  0  0
   12.5291   22.6931   62.1446 C   0  0  0  0  0  0  0  0  0  0  0  0
   11.8897   23.1476   60.9856 C   0  0  0  0  0  0  0  0  0  0  0  0
   12.6429   23.8109   60.0409 C   0  0  0  0  0  0  0  0  0  0  0  0
   13.9821   24.0200   60.2562 C   0  0  0  0  0  0  0  0  0  0  0  0
   14.7546   24.7968   59.2917 C   0  0  0  0  0  0  0  0  0  0  0  0
   15.2584   24.3002   58.1246 N   0  0  0  0  0  0  0  0  0  0  0  0
   15.1214   22.9300   57.6148 C   0  0  0  0  0  0  0  0  0  0  0  0
   16.3888   22.1239   57.9347 C   0  0  0  0  0  0  0  0  0  0  0  0
   15.1178   26.1544   59.4085 C   0  0  0  0  0  0  0  0  0  0  0  0
   14.8116   27.0944   60.5279 C   0  0  0  0  0  0  0  0  0  0  0  0
   13.4858   27.9282   60.3599 C   0  0  0  0  0  0  0  0  0  0  0  0
   12.3974   27.1655   59.6206 C   0  0  0  0  0  0  0  0  0  0  0  0
   12.9359   28.3374   61.7553 C   0  0  0  0  0  0  0  0  0  0  0  0
   13.7559   29.1888   59.5618 C   0  0  0  0  0  0  0  0  0  0  0  0
   14.8697   29.9130   60.0250 O   0  0  0  0  0  0  0  0  0  0  0  0
   14.9874   31.1945   59.6814 C   0  0  0  0  0  0  0  0  0  0  0  0
   16.2342   31.8729   60.1694 C   0  0  0  0  0  0  0  0  0  0  0  0
   16.4044   33.0982   59.4121 N   0  0  0  0  0  0  0  0  0  0  0  0
   17.4927   33.8434   59.7911 N   0  0  0  0  0  0  0  0  0  0  0  0
   18.5464   34.0232   58.9473 C   0  0  0  0  0  0  0  0  0  0  0  0
   18.4394   33.4180   57.5630 C   0  0  0  0  0  0  0  0  0  0  0  0
   19.1273   34.1833   56.5326 N   0  0  0  0  0  0  0  0  0  0  0  0
   18.5829   35.2087   55.8385 C   0  0  0  0  0  0  0  0  0  0  0  0
   19.4256   35.8030   54.7358 C   0  0  0  0  0  0  0  0  0  0  0  0
   19.7204   37.3361   54.8790 C   0  0  0  0  0  0  0  0  0  0  0  0
   20.6289   37.7817   53.7365 C   0  0  0  0  0  0  0  0  0  0  0  0
   20.3901   37.6250   56.2180 C   0  0  0  0  0  0  0  0  0  0  0  0
   18.7632   35.5768   53.4593 N   0  0  0  0  0  0  0  0  0  0  0  0
   19.3461   34.7176   52.5640 C   0  0  0  0  0  0  0  0  0  0  0  0
   18.7557   34.5744   51.1659 C   0  0  0  0  0  0  0  0  0  0  0  0
   19.0997   35.8253   50.3626 C   0  0  0  0  0  0  0  0  0  0  0  0
   18.5518   35.7762   48.9834 C   0  0  0  0  0  0  0  0  0  0  0  0
   19.0871   34.5876   48.2986 N   0  0  0  0  0  0  0  0  0  0  0  0
   19.9068   34.6966   47.1864 C   0  0  0  0  0  0  0  0  0  0  0  0
   20.1985   36.0237   46.6832 C   0  0  0  0  0  0  0  0  0  0  0  0
   20.5354   36.7106   45.7885 C   0  0  0  0  0  0  0  0  0  0  0  0
   20.8172   38.1897   45.6018 C   0  0  0  0  0  0  0  0  0  0  0  0
   21.9576   38.5972   46.4256 N   0  0  0  0  0  0  0  0  0  0  0  0
   21.7783   38.6852   47.8539 C   0  0  0  0  0  0  0  0  0  0  0  0
   23.2944   38.3134   45.9587 C   0  0  0  0  0  0  0  0  0  0  0  0
   21.1634   38.4706   44.1421 C   0  0  0  0  0  0  0  0  0  0  0  0
   19.5852   39.0420   45.9780 C   0  0  0  0  0  0  0  0  0  0  0  0
   20.3888   33.7273   46.6505 O   0  0  0  0  0  0  0  0  0  0  0  0
   18.7929   33.3200   48.9502 C   0  0  0  0  0  0  0  0  0  0  0  0
   19.3342   33.3613   50.3994 C   0  0  0  0  0  0  0  0  0  0  0  0
   20.3446   34.0964   52.8801 O   0  0  0  0  0  0  0  0  0  0  0  0
   17.5054   36.2927   53.2063 C   0  0  0  0  0  0  0  0  0  0  0  0
   17.4450   35.6047   56.0848 O   0  0  0  0  0  0  0  0  0  0  0  0
   19.0635   32.0345   57.6962 C   0  0  0  0  0  0  0  0  0  0  0  0
   18.7709   31.1419   56.5413 C   0  0  0  0  0  0  0  0  0  0  0  0
   17.9521   29.9675   57.0629 C   0  0  0  0  0  0  0  0  0  0  0  0
   17.9571   28.8228   56.1617 N   0  0  0  0  0  0  0  0  0  0  0  0
   19.2487   28.5871   55.4822 C   0  0  0  0  0  0  0  0  0  0  0  0
   19.9263   29.8656   54.9656 C   0  0  0  0  0  0  0  0  0  0  0  0
   20.0115   30.7954   56.0378 O   0  0  0  0  0  0  0  0  0  0  0  0
   19.5671   34.5572   59.2882 O   0  0  0  0  0  0  0  0  0  0  0  0
   17.4704   34.3047   61.1926 C   0  0  0  0  0  0  0  0  0  0  0  0
   17.3481   33.0358   62.0683 C   0  0  0  0  0  0  0  0  0  0  0  0
   16.1626   32.1958   61.6582 C   0  0  0  0  0  0  0  0  0  0  0  0
   14.1450   31.7596   59.0268 O   0  0  0  0  0  0  0  0  0  0  0  0
   15.8971   26.4460   58.2683 C   0  0  0  0  0  0  0  0  0  0  0  0
   15.9572   25.2925   57.4963 C   0  0  0  0  0  0  0  0  0  0  0  0
   16.6979   25.3224   56.2802 C   0  0  0  0  0  0  0  0  0  0  0  0
   17.3414   26.4931   55.8766 C   0  0  0  0  0  0  0  0  0  0  0  0
   17.2911   27.6461   56.6436 C   0  0  0  0  0  0  0  0  0  0  0  0
   16.5488   27.6340   57.8659 C   0  0  0  0  0  0  0  0  0  0  0  0
   17.4003   34.3436   51.2428 F   0  0  0  0  0  0  0  0  0  0  0  0
  1  2  1  0  0  0  0
  2  3  1  0  0  0  0
  2  5  1  0  0  0  0
  3  4  1  0  0  0  0
  5  6  4  0  0  0  0
  5 10  4  0  0  0  0
  6  7  4  0  0  0  0
  7  8  4  0  0  0  0
  8  9  4  0  0  0  0
  9 10  4  0  0  0  0
 10 11  1  0  0  0  0
 11 12  4  0  0  0  0
 11 15  4  0  0  0  0
 12 13  1  0  0  0  0
 12 68  4  0  0  0  0
 13 14  1  0  0  0  0
 15 16  1  0  0  0  0
 15 67  4  0  0  0  0
 16 17  1  0  0  0  0
 17 18  1  0  0  0  0
 17 19  1  0  0  0  0
 17 20  1  0  0  0  0
 20 21  1  0  0  0  0
 21 22  1  0  0  0  0
 22 23  1  0  0  0  0
 22 66  2  0  0  0  0
 23 24  1  0  0  0  0
 23 65  1  0  0  0  0
 24 25  1  0  0  0  0
 25 26  1  0  0  0  0
 25 63  1  0  0  0  0
 26 27  1  0  0  0  0
 26 62  2  0  0  0  0
 27 28  1  0  0  0  0
 27 55  1  0  0  0  0
 28 29  1  0  0  0  0
 29 30  1  0  0  0  0
 29 54  2  0  0  0  0
 30 31  1  0  0  0  0
 30 34  1  0  0  0  0
 31 32  1  0  0  0  0
 31 33  1  0  0  0  0
 34 35  1  0  0  0  0
 34 53  1  0  0  0  0
 35 36  1  0  0  0  0
 35 52  2  0  0  0  0
 36 37  1  0  0  0  0
 36 51  1  0  0  0  0
 36 73  1  0  0  0  0
 37 38  1  0  0  0  0
 38 39  1  0  0  0  0
 39 40  1  0  0  0  0
 39 50  1  0  0  0  0
 40 41  1  0  0  0  0
 40 49  2  0  0  0  0
 41 42  1  0  0  0  0
 42 43  1  0  0  0  0
 43 44  1  0  0  0  0
 43 47  1  0  0  0  0
 43 48  1  0  0  0  0
 44 45  1  0  0  0  0
 44 46  1  0  0  0  0
 50 51  1  0  0  0  0
 55 56  1  0  0  0  0
 56 57  1  0  0  0  0
 56 61  1  0  0  0  0
 57 58  1  0  0  0  0
 58 59  1  0  0  0  0
 58 71  1  0  0  0  0
 59 60  1  0  0  0  0
 60 61  1  0  0  0  0
 63 64  1  0  0  0  0
 64 65  1  0  0  0  0
 67 68  4  0  0  0  0
 67 72  4  0  0  0  0
 68 69  4  0  0  0  0
 69 70  4  0  0  0  0
 70 71  4  0  0  0  0
 71 72  4  0  0  0  0
M  END
$$$$
