obj05
  PyMOL3.1          3D                             0

 73 79  0  0  0  0  0  0  0  0999 V2000
   17.7507   21.0659   58.7581 C   0  0  0  0  0  0  0  0  0  0  0  0
   17.2746   22.4976   58.8095 C   0  0  0  0  0  0  0  0  0  0  0  0
   17.6182   23.1331   59.9961 O   0  0  0  0  0  0  0  0  0  0  0  0
   18.9815   23.4463   60.2178 C   0  0  0  0  0  0  0  0  0  0  0  0
   15.7868   22.5812   58.7078 C   0  0  0  0  0  0  0  0  0  0  0  0
   15.0786   21.6499   59.3361 N   0  0  0  0  0  0  0  0  0  0  0  0
   13.7380   21.6274   59.2566 C   0  0  0  0  0  0  0  0  0  0  0  0
   13.0509   22.5818   58.5017 C   0  0  0  0  0  0  0  0  0  0  0  0
   13.7637   23.5542   57.8583 C   0  0  0  0  0  0  0  0  0  0  0  0
   15.1451   23.5660   57.9913 C   0  0  0  0  0  0  0  0  0  0  0  0
   15.8763   24.6153   57.3379 C   0  0  0  0  0  0  0  0  0  0  0  0
   16.1940   24.5585   56.0169 N   0  0  0  0  0  0  0  0  0  0  0  0
   15.8825   23.4940   55.0495 C   0  0  0  0  0  0  0  0  0  0  0  0
   17.1180   22.6011   54.8184 C   0  0  0  0  0  0  0  0  0  0  0  0
   16.3790   25.7935   57.9165 C   0  0  0  0  0  0  0  0  0  0  0  0
   16.4097   26.2532   59.3737 C   0  0  0  0  0  0  0  0  0  0  0  0
   15.1712   27.0741   59.9179 C   0  0  0  0  0  0  0  0  0  0  0  0
   15.3487   27.3284   61.4395 C   0  0  0  0  0  0  0  0  0  0  0  0
   13.8626   26.3277   59.7281 C   0  0  0  0  0  0  0  0  0  0  0  0
   15.0332   28.4416   59.2439 C   0  0  0  0  0  0  0  0  0  0  0  0
   15.9148   29.4027   59.7683 O   0  0  0  0  0  0  0  0  0  0  0  0
   15.6755   30.7161   59.5393 C   0  0  0  0  0  0  0  0  0  0  0  0
   16.6952   31.6673   60.1037 C   0  0  0  0  0  0  0  0  0  0  0  0
   16.6576   32.8830   59.3227 N   0  0  0  0  0  0  0  0  0  0  0  0
   17.5848   33.7960   59.7357 N   0  0  0  0  0  0  0  0  0  0  0  0
   18.6313   34.0988   58.9401 C   0  0  0  0  0  0  0  0  0  0  0  0
   18.5951   33.5477   57.5450 C   0  0  0  0  0  0  0  0  0  0  0  0
   19.2783   34.3487   56.5813 N   0  0  0  0  0  0  0  0  0  0  0  0
   18.6995   35.3098   55.8958 C   0  0  0  0  0  0  0  0  0  0  0  0
   19.5407   35.8942   54.8130 C   0  0  0  0  0  0  0  0  0  0  0  0
   19.7732   37.4189   54.8906 C   0  0  0  0  0  0  0  0  0  0  0  0
   20.6482   37.8611   53.7229 C   0  0  0  0  0  0  0  0  0  0  0  0
   20.4671   37.7784   56.2176 C   0  0  0  0  0  0  0  0  0  0  0  0
   18.8943   35.5522   53.5580 N   0  0  0  0  0  0  0  0  0  0  0  0
   19.4678   34.6008   52.7843 C   0  0  0  0  0  0  0  0  0  0  0  0
   18.8958   34.3504   51.4186 C   0  0  0  0  0  0  0  0  0  0  0  0
   19.5477   33.1884   50.7063 C   0  0  0  0  0  0  0  0  0  0  0  0
   19.0817   33.1131   49.2501 C   0  0  0  0  0  0  0  0  0  0  0  0
   19.3746   34.4063   48.6670 N   0  0  0  0  0  0  0  0  0  0  0  0
   20.4752   34.6089   47.9147 C   0  0  0  0  0  0  0  0  0  0  0  0
   20.9665   35.9624   47.8212 C   0  0  0  0  0  0  0  0  0  0  0  0
   21.1481   36.9582   47.3709 C   0  0  0  0  0  0  0  0  0  0  0  0
   21.7460   38.3205   47.5238 C   0  0  0  0  0  0  0  0  0  0  0  0
   21.8558   38.7593   48.9486 N   0  0  0  0  0  0  0  0  0  0  0  0
   22.3686   37.7549   49.8665 C   0  0  0  0  0  0  0  0  0  0  0  0
   22.5299   40.0501   49.1404 C   0  0  0  0  0  0  0  0  0  0  0  0
   23.1389   38.3201   46.9112 C   0  0  0  0  0  0  0  0  0  0  0  0
   20.8533   39.3262   46.8000 C   0  0  0  0  0  0  0  0  0  0  0  0
   21.0534   33.7076   47.3662 O   0  0  0  0  0  0  0  0  0  0  0  0
   18.6637   35.5154   49.2325 C   0  0  0  0  0  0  0  0  0  0  0  0
   19.1427   35.6292   50.6113 C   0  0  0  0  0  0  0  0  0  0  0  0
   20.4552   34.0000   53.1805 O   0  0  0  0  0  0  0  0  0  0  0  0
   17.6491   36.2474   53.2355 C   0  0  0  0  0  0  0  0  0  0  0  0
   17.5398   35.6644   56.1018 O   0  0  0  0  0  0  0  0  0  0  0  0
   19.2937   32.1905   57.5808 C   0  0  0  0  0  0  0  0  0  0  0  0
   19.1303   31.4601   56.2940 C   0  0  0  0  0  0  0  0  0  0  0  0
   18.9743   30.0284   56.6404 C   0  0  0  0  0  0  0  0  0  0  0  0
   18.8730   29.2637   55.4434 N   0  0  0  0  0  0  0  0  0  0  0  0
   19.9685   29.5049   54.4900 C   0  0  0  0  0  0  0  0  0  0  0  0
   20.1805   30.9967   54.2439 C   0  0  0  0  0  0  0  0  0  0  0  0
   20.2708   31.6795   55.5090 O   0  0  0  0  0  0  0  0  0  0  0  0
   19.5926   34.7115   59.3226 O   0  0  0  0  0  0  0  0  0  0  0  0
   17.4075   34.3036   61.1019 C   0  0  0  0  0  0  0  0  0  0  0  0
   17.4272   33.0804   62.0323 C   0  0  0  0  0  0  0  0  0  0  0  0
   16.4257   32.0285   61.5732 C   0  0  0  0  0  0  0  0  0  0  0  0
   14.7212   31.0841   58.9149 O   0  0  0  0  0  0  0  0  0  0  0  0
   17.0119   26.4348   56.8459 C   0  0  0  0  0  0  0  0  0  0  0  0
   16.8837   25.6562   55.6995 C   0  0  0  0  0  0  0  0  0  0  0  0
   17.4616   26.0837   54.4791 C   0  0  0  0  0  0  0  0  0  0  0  0
   18.1171   27.2776   54.4261 C   0  0  0  0  0  0  0  0  0  0  0  0
   18.2388   28.0481   55.5531 C   0  0  0  0  0  0  0  0  0  0  0  0
   17.6811   27.6429   56.7881 C   0  0  0  0  0  0  0  0  0  0  0  0
   17.5418   34.0792   51.5069 F   0  0  0  0  0  0  0  0  0  0  0  0
  1  2  1  0  0  0  0
  2  3  1  0  0  0  0
  2  5  1  0  0  0  0
  3  4  1  0  0  0  0
  5  6  4  0  0  0  0
  5 10  4  0  0  0  0
  6  7  4  0  0  0  0
  7  8  4  0  0  0  0
  8  9  4  0  0  0  0
  9 10  4  0  0  0  0
 10 11  1  0  0  0  0
 11 12  4  0  0  0  0
 11 15  4  0  0  0  0
 12 13  1  0  0  0  0
 12 68  4  0  0  0  0
 13 14  1  0  0  0  0
 15 16  1  0  0  0  0
 15 67  4  0  0  0  0
 16 17  1  0  0  0  0
 17 18  1  0  0  0  0
 17 19  1  0  0  0  0
 17 20  1  0  0  0  0
 20 21  1  0  0  0  0
 21 22  1  0  0  0  0
 22 23  1  0  0  0  0
 22 66  2  0  0  0  0
 23 24  1  0  0  0  0
 23 65  1  0  0  0  0
 24 25  1  0  0  0  0
 25 26  1  0  0  0  0
 25 63  1  0  0  0  0
 26 27  1  0  0  0  0
 26 62  2  0  0  0  0
 27 28  1  0  0  0  0
 27 55  1  0  0  0  0
 28 29  1  0  0  0  0
 29 30  1  0  0  0  0
 29 54  2  0  0  0  0
 30 31  1  0  0  0  0
 30 34  1  0  0  0  0
 31 32  1  0  0  0  0
 31 33  1  0  0  0  0
 34 35  1  0  0  0  0
 34 53  1  0  0  0  0
 35 36  1  0  0  0  0
 35 52  2  0  0  0  0
 36 37  1  0  0  0  0
 36 51  1  0  0  0  0
 36 73  1  0  0  0  0
 37 38  1  0  0  0  0
 38 39  1  0  0  0  0
 39 40  1  0  0  0  0
 39 50  1  0  0  0  0
 40 41  1  0  0  0  0
 40 49  2  0  0  0  0
 41 42  1  0  0  0  0
 42 43  1  0  0  0  0
 43 44  1  0  0  0  0
 43 47  1  0  0  0  0
 43 48  1  0  0  0  0
 44 45  1  0  0  0  0
 44 46  1  0  0  0  0
 50 51  1  0  0  0  0
 55 56  1  0  0  0  0
 56 57  1  0  0  0  0
 56 61  1  0  0  0  0
 57 58  1  0  0  0  0
 58 59  1  0  0  0  0
 58 71  1  0  0  0  0
 59 60  1  0  0  0  0
 60 61  1  0  0  0  0
 63 64  1  0  0  0  0
 64 65  1  0  0  0  0
 67 68  4  0  0  0  0
 67 72  4  0  0  0  0
 68 69  4  0  0  0  0
 69 70  4  0  0  0  0
 70 71  4  0  0  0  0
 71 72  4  0  0  0  0
M  END
$$$$
