obj08
  PyMOL3.1          3D                             0

 73 79  0  0  0  0  0  0  0  0999 V2000
   16.4984   21.8635   60.3229 C   0  0  0  0  0  0  0  0  0  0  0  0
   15.9207   23.2492   60.5071 C   0  0  0  0  0  0  0  0  0  0  0  0
   16.0192   23.7862   61.7864 O   0  0  0  0  0  0  0  0  0  0  0  0
   17.1884   23.7022   62.5182 C   0  0  0  0  0  0  0  0  0  0  0  0
   14.4784   23.2610   60.2097 C   0  0  0  0  0  0  0  0  0  0  0  0
   13.7094   22.5087   60.9835 N   0  0  0  0  0  0  0  0  0  0  0  0
   12.4015   22.4173   60.7655 C   0  0  0  0  0  0  0  0  0  0  0  0
   11.7992   23.1110   59.7198 C   0  0  0  0  0  0  0  0  0  0  0  0
   12.5824   23.9090   58.9190 C   0  0  0  0  0  0  0  0  0  0  0  0
   13.9344   24.0007   59.1769 C   0  0  0  0  0  0  0  0  0  0  0  0
   14.7372   24.8747   58.3446 C   0  0  0  0  0  0  0  0  0  0  0  0
   14.9821   24.6244   57.0284 N   0  0  0  0  0  0  0  0  0  0  0  0
   14.5309   23.4772   56.2335 C   0  0  0  0  0  0  0  0  0  0  0  0
   15.5846   22.3583   56.2691 C   0  0  0  0  0  0  0  0  0  0  0  0
   15.3642   26.0723   58.7185 C   0  0  0  0  0  0  0  0  0  0  0  0
   15.4654   26.7197   60.0861 C   0  0  0  0  0  0  0  0  0  0  0  0
   14.2462   27.6398   60.5122 C   0  0  0  0  0  0  0  0  0  0  0  0
   14.3567   27.9592   62.0288 C   0  0  0  0  0  0  0  0  0  0  0  0
   12.9055   26.9872   60.2688 C   0  0  0  0  0  0  0  0  0  0  0  0
   14.2396   28.9717   59.7397 C   0  0  0  0  0  0  0  0  0  0  0  0
   15.3217   29.7988   60.0663 O   0  0  0  0  0  0  0  0  0  0  0  0
   15.2535   31.1384   59.8009 C   0  0  0  0  0  0  0  0  0  0  0  0
   16.4683   31.9093   60.2137 C   0  0  0  0  0  0  0  0  0  0  0  0
   16.5849   33.0944   59.3932 N   0  0  0  0  0  0  0  0  0  0  0  0
   17.6551   33.8671   59.7367 N   0  0  0  0  0  0  0  0  0  0  0  0
   18.7105   34.0134   58.9019 C   0  0  0  0  0  0  0  0  0  0  0  0
   18.5729   33.4262   57.5205 C   0  0  0  0  0  0  0  0  0  0  0  0
   19.2994   34.1743   56.5266 N   0  0  0  0  0  0  0  0  0  0  0  0
   18.7768   35.1819   55.8632 C   0  0  0  0  0  0  0  0  0  0  0  0
   19.6702   35.7762   54.8055 C   0  0  0  0  0  0  0  0  0  0  0  0
   19.8748   37.3172   54.9427 C   0  0  0  0  0  0  0  0  0  0  0  0
   20.7675   37.8135   53.8056 C   0  0  0  0  0  0  0  0  0  0  0  0
   20.5233   37.6485   56.2868 C   0  0  0  0  0  0  0  0  0  0  0  0
   19.0962   35.4733   53.5204 N   0  0  0  0  0  0  0  0  0  0  0  0
   19.7292   34.5339   52.7368 C   0  0  0  0  0  0  0  0  0  0  0  0
   19.2676   34.3991   51.3181 C   0  0  0  0  0  0  0  0  0  0  0  0
   19.7726   35.5936   50.6988 C   0  0  0  0  0  0  0  0  0  0  0  0
   18.9934   35.9466   49.4805 C   0  0  0  0  0  0  0  0  0  0  0  0
   19.5041   35.1201   48.5997 N   0  0  0  0  0  0  0  0  0  0  0  0
   20.3785   35.8397   47.8186 C   0  0  0  0  0  0  0  0  0  0  0  0
   21.5897   35.3054   47.5955 C   0  0  0  0  0  0  0  0  0  0  0  0
   22.1876   34.4530   47.1356 C   0  0  0  0  0  0  0  0  0  0  0  0
   23.6495   34.1812   47.3167 C   0  0  0  0  0  0  0  0  0  0  0  0
   24.3474   34.6154   46.0839 N   0  0  0  0  0  0  0  0  0  0  0  0
   23.9979   33.8278   44.9019 C   0  0  0  0  0  0  0  0  0  0  0  0
   25.8022   34.7658   46.2383 C   0  0  0  0  0  0  0  0  0  0  0  0
   24.1663   35.0024   48.5182 C   0  0  0  0  0  0  0  0  0  0  0  0
   23.8622   32.7081   47.6163 C   0  0  0  0  0  0  0  0  0  0  0  0
   20.1727   36.9699   47.4157 O   0  0  0  0  0  0  0  0  0  0  0  0
   19.2549   33.6890   48.8972 C   0  0  0  0  0  0  0  0  0  0  0  0
   19.7527   33.3214   50.3423 C   0  0  0  0  0  0  0  0  0  0  0  0
   20.6611   33.8852   53.1542 O   0  0  0  0  0  0  0  0  0  0  0  0
   17.8695   36.1813   53.1454 C   0  0  0  0  0  0  0  0  0  0  0  0
   17.6347   35.5759   56.0624 O   0  0  0  0  0  0  0  0  0  0  0  0
   19.1194   32.0013   57.5341 C   0  0  0  0  0  0  0  0  0  0  0  0
   18.5001   31.2057   56.4207 C   0  0  0  0  0  0  0  0  0  0  0  0
   18.6006   29.7473   56.7315 C   0  0  0  0  0  0  0  0  0  0  0  0
   17.9720   29.0197   55.6813 N   0  0  0  0  0  0  0  0  0  0  0  0
   18.5076   29.3450   54.3539 C   0  0  0  0  0  0  0  0  0  0  0  0
   18.5114   30.8609   54.1129 C   0  0  0  0  0  0  0  0  0  0  0  0
   19.1464   31.5184   55.2216 O   0  0  0  0  0  0  0  0  0  0  0  0
   19.7421   34.5179   59.2327 O   0  0  0  0  0  0  0  0  0  0  0  0
   17.6241   34.4094   61.1014 C   0  0  0  0  0  0  0  0  0  0  0  0
   17.5402   33.2099   62.0500 C   0  0  0  0  0  0  0  0  0  0  0  0
   16.3664   32.3259   61.6881 C   0  0  0  0  0  0  0  0  0  0  0  0
   14.3059   31.6670   59.2893 O   0  0  0  0  0  0  0  0  0  0  0  0
   15.9997   26.5245   57.5438 C   0  0  0  0  0  0  0  0  0  0  0  0
   15.7441   25.6202   56.5262 C   0  0  0  0  0  0  0  0  0  0  0  0
   16.2686   25.8322   55.2345 C   0  0  0  0  0  0  0  0  0  0  0  0
   17.0109   26.9710   54.9846 C   0  0  0  0  0  0  0  0  0  0  0  0
   17.2651   27.8724   55.9869 C   0  0  0  0  0  0  0  0  0  0  0  0
   16.7626   27.6630   57.2951 C   0  0  0  0  0  0  0  0  0  0  0  0
   17.9221   34.1878   51.3491 F   0  0  0  0  0  0  0  0  0  0  0  0
  1  2  1  0  0  0  0
  2  3  1  0  0  0  0
  2  5  1  0  0  0  0
  3  4  1  0  0  0  0
  5  6  4  0  0  0  0
  5 10  4  0  0  0  0
  6  7  4  0  0  0  0
  7  8  4  0  0  0  0
  8  9  4  0  0  0  0
  9 10  4  0  0  0  0
 10 11  1  0  0  0  0
 11 12  4  0  0  0  0
 11 15  4  0  0  0  0
 12 13  1  0  0  0  0
 12 68  4  0  0  0  0
 13 14  1  0  0  0  0
 15 16  1  0  0  0  0
 15 67  4  0  0  0  0
 16 17  1  0  0  0  0
 17 18  1  0  0  0  0
 17 19  1  0  0  0  0
 17 20  1  0  0  0  0
 20 21  1  0  0  0  0
 21 22  1  0  0  0  0
 22 23  1  0  0  0  0
 22 66  2  0  0  0  0
 23 24  1  0  0  0  0
 23 65  1  0  0  0  0
 24 25  1  0  0  0  0
 25 26  1  0  0  0  0
 25 63  1  0  0  0  0
 26 27  1  0  0  0  0
 26 62  2  0  0  0  0
 27 28  1  0  0  0  0
 27 55  1  0  0  0  0
 28 29  1  0  0  0  0
 29 30  1  0  0  0  0
 29 54  2  0  0  0  0
 30 31  1  0  0  0  0
 30 34  1  0  0  0  0
 31 32  1  0  0  0  0
 31 33  1  0  0  0  0
 34 35  1  0  0  0  0
 34 53  1  0  0  0  0
 35 36  1  0  0  0  0
 35 52  2  0  0  0  0
 36 37  1  0  0  0  0
 36 51  1  0  0  0  0
 36 73  1  0  0  0  0
 37 38  1  0  0  0  0
 38 39  1  0  0  0  0
 39 40  1  0  0  0  0
 39 50  1  0  0  0  0
 40 41  1  0  0  0  0
 40 49  2  0  0  0  0
 41 42  1  0  0  0  0
 42 43  1  0  0  0  0
 43 44  1  0  0  0  0
 43 47  1  0  0  0  0
 43 48  1  0  0  0  0
 44 45  1  0  0  0  0
 44 46  1  0  0  0  0
 50 51  1  0  0  0  0
 55 56  1  0  0  0  0
 56 57  1  0  0  0  0
 56 61  1  0  0  0  0
 57 58  1  0  0  0  0
 58 59  1  0  0  0  0
 58 71  1  0  0  0  0
 59 60  1  0  0  0  0
 60 61  1  0  0  0  0
 63 64  1  0  0  0  0
 64 65  1  0  0  0  0
 67 68  4  0  0  0  0
 67 72  4  0  0  0  0
 68 69  4  0  0  0  0
 69 70  4  0  0  0  0
 70 71  4  0  0  0  0
 71 72  4  0  0  0  0
M  END
$$$$
