obj11
  PyMOL3.1          3D                             0

 73 79  0  0  0  0  0  0  0  0999 V2000
   17.6708   23.0060   62.1696 C   0  0  0  0  0  0  0  0  0  0  0  0
   17.5611   22.9525   60.6724 C   0  0  0  0  0  0  0  0  0  0  0  0
   18.3501   21.9829   60.0553 O   0  0  0  0  0  0  0  0  0  0  0  0
   19.7332   22.0119   60.2951 C   0  0  0  0  0  0  0  0  0  0  0  0
   16.1678   22.7061   60.2636 C   0  0  0  0  0  0  0  0  0  0  0  0
   15.5003   21.8038   60.9696 N   0  0  0  0  0  0  0  0  0  0  0  0
   14.2592   21.4775   60.6601 C   0  0  0  0  0  0  0  0  0  0  0  0
   13.6062   22.0883   59.6034 C   0  0  0  0  0  0  0  0  0  0  0  0
   14.2788   23.0386   58.8818 C   0  0  0  0  0  0  0  0  0  0  0  0
   15.5707   23.3477   59.2070 C   0  0  0  0  0  0  0  0  0  0  0  0
   16.2516   24.3526   58.4224 C   0  0  0  0  0  0  0  0  0  0  0  0
   16.5005   24.1948   57.0922 N   0  0  0  0  0  0  0  0  0  0  0  0
   16.1934   23.0411   56.2469 C   0  0  0  0  0  0  0  0  0  0  0  0
   17.4506   22.2024   56.0071 C   0  0  0  0  0  0  0  0  0  0  0  0
   16.7370   25.5942   58.8484 C   0  0  0  0  0  0  0  0  0  0  0  0
   16.7998   26.1842   60.2454 C   0  0  0  0  0  0  0  0  0  0  0  0
   15.5144   26.9675   60.7106 C   0  0  0  0  0  0  0  0  0  0  0  0
   15.6590   27.3789   62.1975 C   0  0  0  0  0  0  0  0  0  0  0  0
   14.2529   26.1316   60.5798 C   0  0  0  0  0  0  0  0  0  0  0  0
   15.3239   28.2353   59.8850 C   0  0  0  0  0  0  0  0  0  0  0  0
   16.2286   29.2515   60.2218 O   0  0  0  0  0  0  0  0  0  0  0  0
   15.8553   30.5447   60.0135 C   0  0  0  0  0  0  0  0  0  0  0  0
   16.8466   31.5857   60.4390 C   0  0  0  0  0  0  0  0  0  0  0  0
   16.7949   32.6990   59.5058 N   0  0  0  0  0  0  0  0  0  0  0  0
   17.6550   33.7076   59.8343 N   0  0  0  0  0  0  0  0  0  0  0  0
   18.7013   34.0137   59.0309 C   0  0  0  0  0  0  0  0  0  0  0  0
   18.7224   33.3841   57.6727 C   0  0  0  0  0  0  0  0  0  0  0  0
   19.3802   34.1642   56.6735 N   0  0  0  0  0  0  0  0  0  0  0  0
   18.7992   35.1434   55.9997 C   0  0  0  0  0  0  0  0  0  0  0  0
   19.6347   35.6823   54.8798 C   0  0  0  0  0  0  0  0  0  0  0  0
   19.8070   37.2212   54.8640 C   0  0  0  0  0  0  0  0  0  0  0  0
   20.6612   37.6170   53.6740 C   0  0  0  0  0  0  0  0  0  0  0  0
   20.4748   37.6983   56.1548 C   0  0  0  0  0  0  0  0  0  0  0  0
   19.0166   35.1948   53.6607 N   0  0  0  0  0  0  0  0  0  0  0  0
   19.6080   34.1446   53.0091 C   0  0  0  0  0  0  0  0  0  0  0  0
   19.0515   33.5035   51.7654 C   0  0  0  0  0  0  0  0  0  0  0  0
   20.1499   33.1031   50.7906 C   0  0  0  0  0  0  0  0  0  0  0  0
   20.5841   34.1400   49.9644 C   0  0  0  0  0  0  0  0  0  0  0  0
   19.5375   34.9489   49.3285 N   0  0  0  0  0  0  0  0  0  0  0  0
   19.7400   35.6633   48.2000 C   0  0  0  0  0  0  0  0  0  0  0  0
   21.0144   35.7042   47.6725 C   0  0  0  0  0  0  0  0  0  0  0  0
   21.7349   35.2552   46.9015 C   0  0  0  0  0  0  0  0  0  0  0  0
   23.0601   35.8398   46.5003 C   0  0  0  0  0  0  0  0  0  0  0  0
   24.1697   35.0509   47.0749 N   0  0  0  0  0  0  0  0  0  0  0  0
   24.1737   35.0540   48.5292 C   0  0  0  0  0  0  0  0  0  0  0  0
   25.4778   35.4299   46.5489 C   0  0  0  0  0  0  0  0  0  0  0  0
   23.1290   35.8127   44.9880 C   0  0  0  0  0  0  0  0  0  0  0  0
   23.1921   37.2881   47.0063 C   0  0  0  0  0  0  0  0  0  0  0  0
   18.8589   36.2863   47.6579 O   0  0  0  0  0  0  0  0  0  0  0  0
   18.2912   35.0738   49.9828 C   0  0  0  0  0  0  0  0  0  0  0  0
   17.9925   34.0480   50.9213 C   0  0  0  0  0  0  0  0  0  0  0  0
   20.6529   33.6973   53.4659 O   0  0  0  0  0  0  0  0  0  0  0  0
   17.7716   35.8152   53.2662 C   0  0  0  0  0  0  0  0  0  0  0  0
   17.6699   35.5253   56.2353 O   0  0  0  0  0  0  0  0  0  0  0  0
   19.4895   32.0633   57.7795 C   0  0  0  0  0  0  0  0  0  0  0  0
   19.2888   31.2211   56.5685 C   0  0  0  0  0  0  0  0  0  0  0  0
   19.1412   29.8222   57.0409 C   0  0  0  0  0  0  0  0  0  0  0  0
   18.9578   28.9481   55.9284 N   0  0  0  0  0  0  0  0  0  0  0  0
   19.9749   29.1144   54.8806 C   0  0  0  0  0  0  0  0  0  0  0  0
   20.2101   30.5722   54.5120 C   0  0  0  0  0  0  0  0  0  0  0  0
   20.3833   31.3505   55.7151 O   0  0  0  0  0  0  0  0  0  0  0  0
   19.6208   34.6938   59.3816 O   0  0  0  0  0  0  0  0  0  0  0  0
   17.4139   34.3365   61.1339 C   0  0  0  0  0  0  0  0  0  0  0  0
   17.4556   33.2272   62.1946 C   0  0  0  0  0  0  0  0  0  0  0  0
   16.5195   32.1013   61.8359 C   0  0  0  0  0  0  0  0  0  0  0  0
   14.7928   30.8226   59.5525 O   0  0  0  0  0  0  0  0  0  0  0  0
   17.2871   26.1689   57.6908 C   0  0  0  0  0  0  0  0  0  0  0  0
   17.1142   25.2882   56.6446 C   0  0  0  0  0  0  0  0  0  0  0  0
   17.5900   25.6438   55.3588 C   0  0  0  0  0  0  0  0  0  0  0  0
   18.1952   26.8554   55.1571 C   0  0  0  0  0  0  0  0  0  0  0  0
   18.3678   27.7219   56.1939 C   0  0  0  0  0  0  0  0  0  0  0  0
   17.9069   27.3988   57.4986 C   0  0  0  0  0  0  0  0  0  0  0  0
   18.4570   32.3666   52.2329 F   0  0  0  0  0  0  0  0  0  0  0  0
  1  2  1  0  0  0  0
  2  3  1  0  0  0  0
  2  5  1  0  0  0  0
  3  4  1  0  0  0  0
  5  6  4  0  0  0  0
  5 10  4  0  0  0  0
  6  7  4  0  0  0  0
  7  8  4  0  0  0  0
  8  9  4  0  0  0  0
  9 10  4  0  0  0  0
 10 11  1  0  0  0  0
 11 12  4  0  0  0  0
 11 15  4  0  0  0  0
 12 13  1  0  0  0  0
 12 68  4  0  0  0  0
 13 14  1  0  0  0  0
 15 16  1  0  0  0  0
 15 67  4  0  0  0  0
 16 17  1  0  0  0  0
 17 18  1  0  0  0  0
 17 19  1  0  0  0  0
 17 20  1  0  0  0  0
 20 21  1  0  0  0  0
 21 22  1  0  0  0  0
 22 23  1  0  0  0  0
 22 66  2  0  0  0  0
 23 24  1  0  0  0  0
 23 65  1  0  0  0  0
 24 25  1  0  0  0  0
 25 26  1  0  0  0  0
 25 63  1  0  0  0  0
 26 27  1  0  0  0  0
 26 62  2  0  0  0  0
 27 28  1  0  0  0  0
 27 55  1  0  0  0  0
 28 29  1  0  0  0  0
 29 30  1  0  0  0  0
 29 54  2  0  0  0  0
 30 31  1  0  0  0  0
 30 34  1  0  0  0  0
 31 32  1  0  0  0  0
 31 33  1  0  0  0  0
 34 35  1  0  0  0  0
 34 53  1  0  0  0  0
 35 36  1  0  0  0  0
 35 52  2  0  0  0  0
 36 37  1  0  0  0  0
 36 51  1  0  0  0  0
 36 73  1  0  0  0  0
 37 38  1  0  0  0  0
 38 39  1  0  0  0  0
 39 40  1  0  0  0  0
 39 50  1  0  0  0  0
 40 41  1  0  0  0  0
 40 49  2  0  0  0  0
 41 42  1  0  0  0  0
 42 43  1  0  0  0  0
 43 44  1  0  0  0  0
 43 47  1  0  0  0  0
 43 48  1  0  0  0  0
 44 45  1  0  0  0  0
 44 46  1  0  0  0  0
 50 51  1  0  0  0  0
 55 56  1  0  0  0  0
 56 57  1  0  0  0  0
 56 61  1  0  0  0  0
 57 58  1  0  0  0  0
 58 59  1  0  0  0  0
 58 71  1  0  0  0  0
 59 60  1  0  0  0  0
 60 61  1  0  0  0  0
 63 64  1  0  0  0  0
 64 65  1  0  0  0  0
 67 68  4  0  0  0  0
 67 72  4  0  0  0  0
 68 69  4  0  0  0  0
 69 70  4  0  0  0  0
 70 71  4  0  0  0  0
 71 72  4  0  0  0  0
M  END
$$$$
