obj14
  PyMOL3.1          3D                             0

 73 79  0  0  0  0  0  0  0  0999 V2000
   15.3244   23.0570   61.5597 C   0  0  0  0  0  0  0  0  0  0  0  0
   14.8802   24.4204   61.0807 C   0  0  0  0  0  0  0  0  0  0  0  0
   15.2041   25.3974   62.0232 O   0  0  0  0  0  0  0  0  0  0  0  0
   16.5839   25.6725   62.2216 C   0  0  0  0  0  0  0  0  0  0  0  0
   13.4161   24.4648   60.8805 C   0  0  0  0  0  0  0  0  0  0  0  0
   12.6889   23.8677   61.8038 N   0  0  0  0  0  0  0  0  0  0  0  0
   11.3618   23.7559   61.6827 C   0  0  0  0  0  0  0  0  0  0  0  0
   10.7068   24.2816   60.5678 C   0  0  0  0  0  0  0  0  0  0  0  0
   11.4514   24.9308   59.6040 C   0  0  0  0  0  0  0  0  0  0  0  0
   12.8095   25.0399   59.7686 C   0  0  0  0  0  0  0  0  0  0  0  0
   13.5818   25.7944   58.7925 C   0  0  0  0  0  0  0  0  0  0  0  0
   13.9209   25.3459   57.5463 N   0  0  0  0  0  0  0  0  0  0  0  0
   13.6152   24.0442   56.9674 C   0  0  0  0  0  0  0  0  0  0  0  0
   12.3739   24.1576   56.0829 C   0  0  0  0  0  0  0  0  0  0  0  0
   14.1199   27.0590   58.9799 C   0  0  0  0  0  0  0  0  0  0  0  0
   14.0371   27.8959   60.2083 C   0  0  0  0  0  0  0  0  0  0  0  0
   12.7746   28.8415   60.2575 C   0  0  0  0  0  0  0  0  0  0  0  0
   11.5682   28.2648   59.5464 C   0  0  0  0  0  0  0  0  0  0  0  0
   12.3945   29.1249   61.7301 C   0  0  0  0  0  0  0  0  0  0  0  0
   13.0849   30.1524   59.5828 C   0  0  0  0  0  0  0  0  0  0  0  0
   14.2887   30.6950   60.0260 O   0  0  0  0  0  0  0  0  0  0  0  0
   14.6161   31.9124   59.6362 C   0  0  0  0  0  0  0  0  0  0  0  0
   15.9309   32.3785   60.1691 C   0  0  0  0  0  0  0  0  0  0  0  0
   16.3231   33.5430   59.4076 N   0  0  0  0  0  0  0  0  0  0  0  0
   17.4976   34.0867   59.8174 N   0  0  0  0  0  0  0  0  0  0  0  0
   18.5758   34.1104   58.9936 C   0  0  0  0  0  0  0  0  0  0  0  0
   18.4330   33.4913   57.6113 C   0  0  0  0  0  0  0  0  0  0  0  0
   19.1829   34.2082   56.6149 N   0  0  0  0  0  0  0  0  0  0  0  0
   18.7243   35.2486   55.9201 C   0  0  0  0  0  0  0  0  0  0  0  0
   19.6777   35.7654   54.8739 C   0  0  0  0  0  0  0  0  0  0  0  0
   19.9481   37.2946   54.9216 C   0  0  0  0  0  0  0  0  0  0  0  0
   20.8990   37.6641   53.7851 C   0  0  0  0  0  0  0  0  0  0  0  0
   20.5752   37.6842   56.2630 C   0  0  0  0  0  0  0  0  0  0  0  0
   19.1497   35.3672   53.5845 N   0  0  0  0  0  0  0  0  0  0  0  0
   19.6778   34.2483   53.0012 C   0  0  0  0  0  0  0  0  0  0  0  0
   19.3287   33.7969   51.6074 C   0  0  0  0  0  0  0  0  0  0  0  0
   20.2993   34.5132   50.6886 C   0  0  0  0  0  0  0  0  0  0  0  0
   20.0861   34.1427   49.2974 C   0  0  0  0  0  0  0  0  0  0  0  0
   18.7181   34.4654   48.9465 N   0  0  0  0  0  0  0  0  0  0  0  0
   18.4289   35.5132   48.1032 C   0  0  0  0  0  0  0  0  0  0  0  0
   19.5269   36.3125   47.5915 C   0  0  0  0  0  0  0  0  0  0  0  0
   20.4957   36.3351   46.8168 C   0  0  0  0  0  0  0  0  0  0  0  0
   21.4721   37.4714   46.6172 C   0  0  0  0  0  0  0  0  0  0  0  0
   22.2753   37.7223   47.8433 N   0  0  0  0  0  0  0  0  0  0  0  0
   22.9654   36.5312   48.3537 C   0  0  0  0  0  0  0  0  0  0  0  0
   23.2132   38.8598   47.7328 C   0  0  0  0  0  0  0  0  0  0  0  0
   22.4108   37.1386   45.4570 C   0  0  0  0  0  0  0  0  0  0  0  0
   20.6889   38.7513   46.2925 C   0  0  0  0  0  0  0  0  0  0  0  0
   17.2877   35.7624   47.7901 O   0  0  0  0  0  0  0  0  0  0  0  0
   17.7045   33.7121   49.6755 C   0  0  0  0  0  0  0  0  0  0  0  0
   17.8895   33.9866   51.1826 C   0  0  0  0  0  0  0  0  0  0  0  0
   20.5272   33.6213   53.5973 O   0  0  0  0  0  0  0  0  0  0  0  0
   18.0764   36.1841   53.0418 C   0  0  0  0  0  0  0  0  0  0  0  0
   17.5890   35.6997   56.0786 O   0  0  0  0  0  0  0  0  0  0  0  0
   18.9645   32.0516   57.6738 C   0  0  0  0  0  0  0  0  0  0  0  0
   18.5843   31.1963   56.5098 C   0  0  0  0  0  0  0  0  0  0  0  0
   17.1782   30.6623   56.7105 C   0  0  0  0  0  0  0  0  0  0  0  0
   16.9459   29.5989   55.7465 N   0  0  0  0  0  0  0  0  0  0  0  0
   17.1815   30.0175   54.3649 C   0  0  0  0  0  0  0  0  0  0  0  0
   18.5109   30.7815   54.2031 C   0  0  0  0  0  0  0  0  0  0  0  0
   18.6447   31.7972   55.2461 O   0  0  0  0  0  0  0  0  0  0  0  0
   19.6460   34.5250   59.3456 O   0  0  0  0  0  0  0  0  0  0  0  0
   17.5293   34.5455   61.2242 C   0  0  0  0  0  0  0  0  0  0  0  0
   17.1603   33.3337   62.0963 C   0  0  0  0  0  0  0  0  0  0  0  0
   15.8467   32.7240   61.6589 C   0  0  0  0  0  0  0  0  0  0  0  0
   13.9190   32.5792   58.9146 O   0  0  0  0  0  0  0  0  0  0  0  0
   14.8081   27.3568   57.7785 C   0  0  0  0  0  0  0  0  0  0  0  0
   14.6425   26.2977   56.9138 C   0  0  0  0  0  0  0  0  0  0  0  0
   15.2345   26.3534   55.6408 C   0  0  0  0  0  0  0  0  0  0  0  0
   15.9829   27.4566   55.2654 C   0  0  0  0  0  0  0  0  0  0  0  0
   16.1553   28.5134   56.1351 C   0  0  0  0  0  0  0  0  0  0  0  0
   15.5763   28.4711   57.4227 C   0  0  0  0  0  0  0  0  0  0  0  0
   19.4885   32.4410   51.4909 F   0  0  0  0  0  0  0  0  0  0  0  0
  1  2  1  0  0  0  0
  2  3  1  0  0  0  0
  2  5  1  0  0  0  0
  3  4  1  0  0  0  0
  5  6  4  0  0  0  0
  5 10  4  0  0  0  0
  6  7  4  0  0  0  0
  7  8  4  0  0  0  0
  8  9  4  0  0  0  0
  9 10  4  0  0  0  0
 10 11  1  0  0  0  0
 11 12  4  0  0  0  0
 11 15  4  0  0  0  0
 12 13  1  0  0  0  0
 12 68  4  0  0  0  0
 13 14  1  0  0  0  0
 15 16  1  0  0  0  0
 15 67  4  0  0  0  0
 16 17  1  0  0  0  0
 17 18  1  0  0  0  0
 17 19  1  0  0  0  0
 17 20  1  0  0  0  0
 20 21  1  0  0  0  0
 21 22  1  0  0  0  0
 22 23  1  0  0  0  0
 22 66  2  0  0  0  0
 23 24  1  0  0  0  0
 23 65  1  0  0  0  0
 24 25  1  0  0  0  0
 25 26  1  0  0  0  0
 25 63  1  0  0  0  0
 26 27  1  0  0  0  0
 26 62  2  0  0  0  0
 27 28  1  0  0  0  0
 27 55  1  0  0  0  0
 28 29  1  0  0  0  0
 29 30  1  0  0  0  0
 29 54  2  0  0  0  0
 30 31  1  0  0  0  0
 30 34  1  0  0  0  0
 31 32  1  0  0  0  0
 31 33  1  0  0  0  0
 34 35  1  0  0  0  0
 34 53  1  0  0  0  0
 35 36  1  0  0  0  0
 35 52  2  0  0  0  0
 36 37  1  0  0  0  0
 36 51  1  0  0  0  0
 36 73  1  0  0  0  0
 37 38  1  0  0  0  0
 38 39  1  0  0  0  0
 39 40  1  0  0  0  0
 39 50  1  0  0  0  0
 40 41  1  0  0  0  0
 40 49  2  0  0  0  0
 41 42  1  0  0  0  0
 42 43  1  0  0  0  0
 43 44  1  0  0  0  0
 43 47  1  0  0  0  0
 43 48  1  0  0  0  0
 44 45  1  0  0  0  0
 44 46  1  0  0  0  0
 50 51  1  0  0  0  0
 55 56  1  0  0  0  0
 56 57  1  0  0  0  0
 56 61  1  0  0  0  0
 57 58  1  0  0  0  0
 58 59  1  0  0  0  0
 58 71  1  0  0  0  0
 59 60  1  0  0  0  0
 60 61  1  0  0  0  0
 63 64  1  0  0  0  0
 64 65  1  0  0  0  0
 67 68  4  0  0  0  0
 67 72  4  0  0  0  0
 68 69  4  0  0  0  0
 69 70  4  0  0  0  0
 70 71  4  0  0  0  0
 71 72  4  0  0  0  0
M  END
$$$$
