obj10
  PyMOL3.1          3D                             0

 73 79  0  0  0  0  0  0  0  0999 V2000
   19.0040   22.6460   62.1801 C   0  0  0  0  0  0  0  0  0  0  0  0
   18.3269   23.8300   61.5280 C   0  0  0  0  0  0  0  0  0  0  0  0
   18.6345   25.0214   62.1784 O   0  0  0  0  0  0  0  0  0  0  0  0
   19.8898   25.6228   61.8856 C   0  0  0  0  0  0  0  0  0  0  0  0
   16.8430   23.6951   61.5335 C   0  0  0  0  0  0  0  0  0  0  0  0
   16.2906   23.1695   62.6294 N   0  0  0  0  0  0  0  0  0  0  0  0
   14.9727   22.8716   62.6632 C   0  0  0  0  0  0  0  0  0  0  0  0
   14.1532   23.1226   61.5519 C   0  0  0  0  0  0  0  0  0  0  0  0
   14.7161   23.7036   60.4252 C   0  0  0  0  0  0  0  0  0  0  0  0
   16.0644   24.0203   60.4298 C   0  0  0  0  0  0  0  0  0  0  0  0
   16.6422   24.7646   59.3209 C   0  0  0  0  0  0  0  0  0  0  0  0
   17.1281   24.2231   58.1436 N   0  0  0  0  0  0  0  0  0  0  0  0
   17.1531   22.8109   57.7656 C   0  0  0  0  0  0  0  0  0  0  0  0
   16.0011   22.5115   56.8002 C   0  0  0  0  0  0  0  0  0  0  0  0
   16.8533   26.1377   59.3196 C   0  0  0  0  0  0  0  0  0  0  0  0
   16.5285   27.1203   60.4232 C   0  0  0  0  0  0  0  0  0  0  0  0
   15.0802   27.7669   60.3493 C   0  0  0  0  0  0  0  0  0  0  0  0
   14.6257   28.1582   61.7716 C   0  0  0  0  0  0  0  0  0  0  0  0
   14.0288   26.8531   59.7480 C   0  0  0  0  0  0  0  0  0  0  0  0
   15.1247   29.0144   59.4593 C   0  0  0  0  0  0  0  0  0  0  0  0
   15.4843   30.2049   60.1396 O   0  0  0  0  0  0  0  0  0  0  0  0
   15.1246   31.4382   59.6158 C   0  0  0  0  0  0  0  0  0  0  0  0
   15.5978   32.6906   60.3539 C   0  0  0  0  0  0  0  0  0  0  0  0
   16.3289   33.5024   59.3572 N   0  0  0  0  0  0  0  0  0  0  0  0
   17.5584   34.0481   59.7289 N   0  0  0  0  0  0  0  0  0  0  0  0
   18.6752   34.0959   58.9232 C   0  0  0  0  0  0  0  0  0  0  0  0
   18.6329   33.4403   57.5583 C   0  0  0  0  0  0  0  0  0  0  0  0
   19.2956   34.2094   56.5474 N   0  0  0  0  0  0  0  0  0  0  0  0
   18.7155   35.2209   55.9047 C   0  0  0  0  0  0  0  0  0  0  0  0
   19.5694   35.7971   54.8104 C   0  0  0  0  0  0  0  0  0  0  0  0
   19.7977   37.3314   54.8687 C   0  0  0  0  0  0  0  0  0  0  0  0
   20.6780   37.7505   53.6874 C   0  0  0  0  0  0  0  0  0  0  0  0
   20.4769   37.7228   56.1847 C   0  0  0  0  0  0  0  0  0  0  0  0
   18.9281   35.4378   53.5586 N   0  0  0  0  0  0  0  0  0  0  0  0
   19.5085   34.4671   52.8201 C   0  0  0  0  0  0  0  0  0  0  0  0
   18.9393   34.1586   51.4584 C   0  0  0  0  0  0  0  0  0  0  0  0
   19.2891   35.3335   50.5726 C   0  0  0  0  0  0  0  0  0  0  0  0
   18.8302   35.1353   49.2036 C   0  0  0  0  0  0  0  0  0  0  0  0
   19.4776   33.9309   48.7417 N   0  0  0  0  0  0  0  0  0  0  0  0
   20.6365   34.0400   48.0754 C   0  0  0  0  0  0  0  0  0  0  0  0
   21.1672   35.3755   47.9407 C   0  0  0  0  0  0  0  0  0  0  0  0
   21.6093   36.2461   47.3723 C   0  0  0  0  0  0  0  0  0  0  0  0
   22.1422   37.6320   47.6364 C   0  0  0  0  0  0  0  0  0  0  0  0
   23.1339   37.5635   48.7530 N   0  0  0  0  0  0  0  0  0  0  0  0
   22.5445   37.3384   50.0761 C   0  0  0  0  0  0  0  0  0  0  0  0
   24.0888   38.6884   48.7966 C   0  0  0  0  0  0  0  0  0  0  0  0
   22.7997   38.1121   46.3591 C   0  0  0  0  0  0  0  0  0  0  0  0
   21.0115   38.5933   48.0179 C   0  0  0  0  0  0  0  0  0  0  0  0
   21.2187   33.0775   47.6418 O   0  0  0  0  0  0  0  0  0  0  0  0
   19.0695   32.7132   49.3891 C   0  0  0  0  0  0  0  0  0  0  0  0
   19.5103   32.8651   50.8635 C   0  0  0  0  0  0  0  0  0  0  0  0
   20.5034   33.8772   53.2252 O   0  0  0  0  0  0  0  0  0  0  0  0
   17.6820   36.1370   53.2048 C   0  0  0  0  0  0  0  0  0  0  0  0
   17.5828   35.5895   56.1363 O   0  0  0  0  0  0  0  0  0  0  0  0
   19.4031   32.0982   57.6204 C   0  0  0  0  0  0  0  0  0  0  0  0
   19.1143   31.2041   56.4354 C   0  0  0  0  0  0  0  0  0  0  0  0
   19.4962   29.8081   56.8337 C   0  0  0  0  0  0  0  0  0  0  0  0
   19.0424   28.8979   55.8227 N   0  0  0  0  0  0  0  0  0  0  0  0
   19.6927   29.1833   54.5278 C   0  0  0  0  0  0  0  0  0  0  0  0
   19.5142   30.6884   54.1542 C   0  0  0  0  0  0  0  0  0  0  0  0
   19.8563   31.5495   55.2906 O   0  0  0  0  0  0  0  0  0  0  0  0
   19.7099   34.5858   59.2874 O   0  0  0  0  0  0  0  0  0  0  0  0
   17.5925   34.5104   61.1186 C   0  0  0  0  0  0  0  0  0  0  0  0
   17.4413   33.2825   61.9862 C   0  0  0  0  0  0  0  0  0  0  0  0
   16.4285   32.2764   61.5511 C   0  0  0  0  0  0  0  0  0  0  0  0
   14.4874   31.5281   58.6009 O   0  0  0  0  0  0  0  0  0  0  0  0
   17.5020   26.4118   58.0896 C   0  0  0  0  0  0  0  0  0  0  0  0
   17.6301   25.2265   57.3687 C   0  0  0  0  0  0  0  0  0  0  0  0
   18.2418   25.2673   56.0856 C   0  0  0  0  0  0  0  0  0  0  0  0
   18.7121   26.4909   55.5656 C   0  0  0  0  0  0  0  0  0  0  0  0
   18.5926   27.6521   56.3098 C   0  0  0  0  0  0  0  0  0  0  0  0
   17.9908   27.6154   57.5815 C   0  0  0  0  0  0  0  0  0  0  0  0
   17.5768   33.9359   51.5365 F   0  0  0  0  0  0  0  0  0  0  0  0
  1  2  1  0  0  0  0
  2  3  1  0  0  0  0
  2  5  1  0  0  0  0
  3  4  1  0  0  0  0
  5  6  4  0  0  0  0
  5 10  4  0  0  0  0
  6  7  4  0  0  0  0
  7  8  4  0  0  0  0
  8  9  4  0  0  0  0
  9 10  4  0  0  0  0
 10 11  1  0  0  0  0
 11 12  4  0  0  0  0
 11 15  4  0  0  0  0
 12 13  1  0  0  0  0
 12 68  4  0  0  0  0
 13 14  1  0  0  0  0
 15 16  1  0  0  0  0
 15 67  4  0  0  0  0
 16 17  1  0  0  0  0
 17 18  1  0  0  0  0
 17 19  1  0  0  0  0
 17 20  1  0  0  0  0
 20 21  1  0  0  0  0
 21 22  1  0  0  0  0
 22 23  1  0  0  0  0
 22 66  2  0  0  0  0
 23 24  1  0  0  0  0
 23 65  1  0  0  0  0
 24 25  1  0  0  0  0
 25 26  1  0  0  0  0
 25 63  1  0  0  0  0
 26 27  1  0  0  0  0
 26 62  2  0  0  0  0
 27 28  1  0  0  0  0
 27 55  1  0  0  0  0
 28 29  1  0  0  0  0
 29 30  1  0  0  0  0
 29 54  2  0  0  0  0
 30 31  1  0  0  0  0
 30 34  1  0  0  0  0
 31 32  1  0  0  0  0
 31 33  1  0  0  0  0
 34 35  1  0  0  0  0
 34 53  1  0  0  0  0
 35 36  1  0  0  0  0
 35 52  2  0  0  0  0
 36 37  1  0  0  0  0
 36 51  1  0  0  0  0
 36 73  1  0  0  0  0
 37 38  1  0  0  0  0
 38 39  1  0  0  0  0
 39 40  1  0  0  0  0
 39 50  1  0  0  0  0
 40 41  1  0  0  0  0
 40 49  2  0  0  0  0
 41 42  1  0  0  0  0
 42 43  1  0  0  0  0
 43 44  1  0  0  0  0
 43 47  1  0  0  0  0
 43 48  1  0  0  0  0
 44 45  1  0  0  0  0
 44 46  1  0  0  0  0
 50 51  1  0  0  0  0
 55 56  1  0  0  0  0
 56 57  1  0  0  0  0
 56 61  1  0  0  0  0
 57 58  1  0  0  0  0
 58 59  1  0  0  0  0
 58 71  1  0  0  0  0
 59 60  1  0  0  0  0
 60 61  1  0  0  0  0
 63 64  1  0  0  0  0
 64 65  1  0  0  0  0
 67 68  4  0  0  0  0
 67 72  4  0  0  0  0
 68 69  4  0  0  0  0
 69 70  4  0  0  0  0
 70 71  4  0  0  0  0
 71 72  4  0  0  0  0
M  END
$$$$
