obj19
  PyMOL3.1          3D                             0

 73 79  0  0  0  0  0  0  0  0999 V2000
   10.2853   25.7916   54.4772 C   0  0  0  0  0  0  0  0  0  0  0  0
   10.0766   27.2815   54.3609 C   0  0  0  0  0  0  0  0  0  0  0  0
    9.4823   27.7132   53.1641 O   0  0  0  0  0  0  0  0  0  0  0  0
   10.3455   27.9046   52.0499 C   0  0  0  0  0  0  0  0  0  0  0  0
    9.2781   27.8207   55.4766 C   0  0  0  0  0  0  0  0  0  0  0  0
    8.1562   27.2105   55.8180 N   0  0  0  0  0  0  0  0  0  0  0  0
    7.3904   27.6880   56.8055 C   0  0  0  0  0  0  0  0  0  0  0  0
    7.7675   28.8245   57.5133 C   0  0  0  0  0  0  0  0  0  0  0  0
    8.9220   29.4582   57.1698 C   0  0  0  0  0  0  0  0  0  0  0  0
    9.6662   28.9613   56.1426 C   0  0  0  0  0  0  0  0  0  0  0  0
   10.8898   29.6037   55.7751 C   0  0  0  0  0  0  0  0  0  0  0  0
   10.9855   30.5552   54.8026 N   0  0  0  0  0  0  0  0  0  0  0  0
    9.9018   31.1699   54.0363 C   0  0  0  0  0  0  0  0  0  0  0  0
    9.5481   32.5345   54.6402 C   0  0  0  0  0  0  0  0  0  0  0  0
   12.1591   29.2873   56.2597 C   0  0  0  0  0  0  0  0  0  0  0  0
   12.5917   28.3398   57.3265 C   0  0  0  0  0  0  0  0  0  0  0  0
   12.7965   28.9637   58.7551 C   0  0  0  0  0  0  0  0  0  0  0  0
   13.9847   28.2413   59.4006 C   0  0  0  0  0  0  0  0  0  0  0  0
   11.5487   28.6962   59.6266 C   0  0  0  0  0  0  0  0  0  0  0  0
   13.0297   30.4584   58.7911 C   0  0  0  0  0  0  0  0  0  0  0  0
   14.2324   30.8936   59.3867 O   0  0  0  0  0  0  0  0  0  0  0  0
   14.5159   32.2261   59.3230 C   0  0  0  0  0  0  0  0  0  0  0  0
   15.8526   32.6089   59.9042 C   0  0  0  0  0  0  0  0  0  0  0  0
   16.2958   33.8302   59.2491 N   0  0  0  0  0  0  0  0  0  0  0  0
   17.5044   34.2994   59.7167 N   0  0  0  0  0  0  0  0  0  0  0  0
   18.5988   34.3377   58.9111 C   0  0  0  0  0  0  0  0  0  0  0  0
   18.4011   33.9272   57.4834 C   0  0  0  0  0  0  0  0  0  0  0  0
   19.2481   34.6541   56.5611 N   0  0  0  0  0  0  0  0  0  0  0  0
   18.7924   35.5600   55.6990 C   0  0  0  0  0  0  0  0  0  0  0  0
   19.8182   36.0511   54.7304 C   0  0  0  0  0  0  0  0  0  0  0  0
   20.0849   37.5821   54.8365 C   0  0  0  0  0  0  0  0  0  0  0  0
   21.0783   38.0126   53.7674 C   0  0  0  0  0  0  0  0  0  0  0  0
   20.6543   37.9072   56.2264 C   0  0  0  0  0  0  0  0  0  0  0  0
   19.4321   35.6550   53.3961 N   0  0  0  0  0  0  0  0  0  0  0  0
   20.0661   34.5762   52.8596 C   0  0  0  0  0  0  0  0  0  0  0  0
   19.9180   34.2723   51.3960 C   0  0  0  0  0  0  0  0  0  0  0  0
   20.6628   33.0015   50.9984 C   0  0  0  0  0  0  0  0  0  0  0  0
   20.6263   32.8283   49.5390 C   0  0  0  0  0  0  0  0  0  0  0  0
   21.1246   34.0535   48.8913 N   0  0  0  0  0  0  0  0  0  0  0  0
   22.2120   34.1219   48.0946 C   0  0  0  0  0  0  0  0  0  0  0  0
   23.0051   32.9975   47.9228 C   0  0  0  0  0  0  0  0  0  0  0  0
   23.7379   32.1745   47.6695 C   0  0  0  0  0  0  0  0  0  0  0  0
   24.6188   31.0477   47.5060 C   0  0  0  0  0  0  0  0  0  0  0  0
   26.0073   31.4767   47.7984 N   0  0  0  0  0  0  0  0  0  0  0  0
   26.1814   31.9573   49.1876 C   0  0  0  0  0  0  0  0  0  0  0  0
   26.5468   32.4465   46.8124 C   0  0  0  0  0  0  0  0  0  0  0  0
   24.2130   29.9050   48.4686 C   0  0  0  0  0  0  0  0  0  0  0  0
   24.4838   30.5507   46.0696 C   0  0  0  0  0  0  0  0  0  0  0  0
   22.5265   35.1647   47.5369 O   0  0  0  0  0  0  0  0  0  0  0  0
   20.4416   35.2807   49.2062 C   0  0  0  0  0  0  0  0  0  0  0  0
   20.5452   35.4543   50.6748 C   0  0  0  0  0  0  0  0  0  0  0  0
   20.8093   33.8666   53.5495 O   0  0  0  0  0  0  0  0  0  0  0  0
   18.3617   36.4358   52.7301 C   0  0  0  0  0  0  0  0  0  0  0  0
   17.6240   35.9189   55.6794 O   0  0  0  0  0  0  0  0  0  0  0  0
   18.7706   32.4279   57.3958 C   0  0  0  0  0  0  0  0  0  0  0  0
   18.3698   31.8466   56.0506 C   0  0  0  0  0  0  0  0  0  0  0  0
   16.8749   31.6980   56.0408 C   0  0  0  0  0  0  0  0  0  0  0  0
   16.4473   30.9971   54.8194 N   0  0  0  0  0  0  0  0  0  0  0  0
   17.1629   29.6771   54.7003 C   0  0  0  0  0  0  0  0  0  0  0  0
   18.6623   29.9279   54.6679 C   0  0  0  0  0  0  0  0  0  0  0  0
   19.0317   30.5983   55.8799 O   0  0  0  0  0  0  0  0  0  0  0  0
   19.6961   34.6075   59.3089 O   0  0  0  0  0  0  0  0  0  0  0  0
   17.5290   34.6270   61.1338 C   0  0  0  0  0  0  0  0  0  0  0  0
   17.0946   33.3776   61.9325 C   0  0  0  0  0  0  0  0  0  0  0  0
   15.7623   32.8571   61.4107 C   0  0  0  0  0  0  0  0  0  0  0  0
   13.7627   33.0137   58.8130 O   0  0  0  0  0  0  0  0  0  0  0  0
   13.0157   30.0740   55.5335 C   0  0  0  0  0  0  0  0  0  0  0  0
   12.2777   30.8608   54.6593 C   0  0  0  0  0  0  0  0  0  0  0  0
   12.9560   31.7693   53.8101 C   0  0  0  0  0  0  0  0  0  0  0  0
   14.3427   31.8250   53.9024 C   0  0  0  0  0  0  0  0  0  0  0  0
   15.0542   30.9645   54.7763 C   0  0  0  0  0  0  0  0  0  0  0  0
   14.3941   30.1104   55.5877 C   0  0  0  0  0  0  0  0  0  0  0  0
   18.5730   34.1174   51.0677 F   0  0  0  0  0  0  0  0  0  0  0  0
  1  2  1  0  0  0  0
  2  3  1  0  0  0  0
  2  5  1  0  0  0  0
  3  4  1  0  0  0  0
  5  6  4  0  0  0  0
  5 10  4  0  0  0  0
  6  7  4  0  0  0  0
  7  8  4  0  0  0  0
  8  9  4  0  0  0  0
  9 10  4  0  0  0  0
 10 11  1  0  0  0  0
 11 12  4  0  0  0  0
 11 15  4  0  0  0  0
 12 13  1  0  0  0  0
 12 68  4  0  0  0  0
 13 14  1  0  0  0  0
 15 16  1  0  0  0  0
 15 67  4  0  0  0  0
 16 17  1  0  0  0  0
 17 18  1  0  0  0  0
 17 19  1  0  0  0  0
 17 20  1  0  0  0  0
 20 21  1  0  0  0  0
 21 22  1  0  0  0  0
 22 23  1  0  0  0  0
 22 66  2  0  0  0  0
 23 24  1  0  0  0  0
 23 65  1  0  0  0  0
 24 25  1  0  0  0  0
 25 26  1  0  0  0  0
 25 63  1  0  0  0  0
 26 27  1  0  0  0  0
 26 62  2  0  0  0  0
 27 28  1  0  0  0  0
 27 55  1  0  0  0  0
 28 29  1  0  0  0  0
 29 30  1  0  0  0  0
 29 54  2  0  0  0  0
 30 31  1  0  0  0  0
 30 34  1  0  0  0  0
 31 32  1  0  0  0  0
 31 33  1  0  0  0  0
 34 35  1  0  0  0  0
 34 53  1  0  0  0  0
 35 36  1  0  0  0  0
 35 52  2  0  0  0  0
 36 37  1  0  0  0  0
 36 51  1  0  0  0  0
 36 73  1  0  0  0  0
 37 38  1  0  0  0  0
 38 39  1  0  0  0  0
 39 40  1  0  0  0  0
 39 50  1  0  0  0  0
 40 41  1  0  0  0  0
 40 49  2  0  0  0  0
 41 42  1  0  0  0  0
 42 43  1  0  0  0  0
 43 44  1  0  0  0  0
 43 47  1  0  0  0  0
 43 48  1  0  0  0  0
 44 45  1  0  0  0  0
 44 46  1  0  0  0  0
 50 51  1  0  0  0  0
 55 56  1  0  0  0  0
 56 57  1  0  0  0  0
 56 61  1  0  0  0  0
 57 58  1  0  0  0  0
 58 59  1  0  0  0  0
 58 71  1  0  0  0  0
 59 60  1  0  0  0  0
 60 61  1  0  0  0  0
 63 64  1  0  0  0  0
 64 65  1  0  0  0  0
 67 68  4  0  0  0  0
 67 72  4  0  0  0  0
 68 69  4  0  0  0  0
 69 70  4  0  0  0  0
 70 71  4  0  0  0  0
 71 72  4  0  0  0  0
M  END
$$$$
