obj12
  PyMOL3.1          3D                             0

 73 79  0  0  0  0  0  0  0  0999 V2000
   17.5367   22.8293   60.5734 C   0  0  0  0  0  0  0  0  0  0  0  0
   16.7383   24.1133   60.6494 C   0  0  0  0  0  0  0  0  0  0  0  0
   17.0495   24.9010   61.7675 O   0  0  0  0  0  0  0  0  0  0  0  0
   18.2788   25.6093   61.7645 C   0  0  0  0  0  0  0  0  0  0  0  0
   15.2955   23.8416   60.7353 C   0  0  0  0  0  0  0  0  0  0  0  0
   14.8895   23.0782   61.7423 N   0  0  0  0  0  0  0  0  0  0  0  0
   13.6016   22.7311   61.8551 C   0  0  0  0  0  0  0  0  0  0  0  0
   12.6561   23.1704   60.9166 C   0  0  0  0  0  0  0  0  0  0  0  0
   13.0730   23.9726   59.8812 C   0  0  0  0  0  0  0  0  0  0  0  0
   14.4030   24.3144   59.7959 C   0  0  0  0  0  0  0  0  0  0  0  0
   14.8563   25.2184   58.7548 C   0  0  0  0  0  0  0  0  0  0  0  0
   15.1543   24.8520   57.4733 N   0  0  0  0  0  0  0  0  0  0  0  0
   15.0957   23.5244   56.8870 C   0  0  0  0  0  0  0  0  0  0  0  0
   13.8748   23.4068   55.9735 C   0  0  0  0  0  0  0  0  0  0  0  0
   15.1214   26.5729   58.9245 C   0  0  0  0  0  0  0  0  0  0  0  0
   15.0148   27.3642   60.1842 C   0  0  0  0  0  0  0  0  0  0  0  0
   13.6412   28.1228   60.3896 C   0  0  0  0  0  0  0  0  0  0  0  0
   12.4743   27.3895   59.7593 C   0  0  0  0  0  0  0  0  0  0  0  0
   13.3750   28.2892   61.9058 C   0  0  0  0  0  0  0  0  0  0  0  0
   13.7196   29.4938   59.7411 C   0  0  0  0  0  0  0  0  0  0  0  0
   14.8883   30.1867   60.0758 O   0  0  0  0  0  0  0  0  0  0  0  0
   15.0092   31.4639   59.6944 C   0  0  0  0  0  0  0  0  0  0  0  0
   16.2782   32.1119   60.1432 C   0  0  0  0  0  0  0  0  0  0  0  0
   16.4811   33.3240   59.3744 N   0  0  0  0  0  0  0  0  0  0  0  0
   17.5962   34.0070   59.7491 N   0  0  0  0  0  0  0  0  0  0  0  0
   18.6464   34.1295   58.9022 C   0  0  0  0  0  0  0  0  0  0  0  0
   18.4735   33.6134   57.4856 C   0  0  0  0  0  0  0  0  0  0  0  0
   19.2431   34.3612   56.5510 N   0  0  0  0  0  0  0  0  0  0  0  0
   18.7636   35.4064   55.8814 C   0  0  0  0  0  0  0  0  0  0  0  0
   19.7462   35.9989   54.9058 C   0  0  0  0  0  0  0  0  0  0  0  0
   20.0059   37.5233   55.0830 C   0  0  0  0  0  0  0  0  0  0  0  0
   21.0189   37.9980   54.0393 C   0  0  0  0  0  0  0  0  0  0  0  0
   20.5613   37.8147   56.4848 C   0  0  0  0  0  0  0  0  0  0  0  0
   19.2738   35.7630   53.5806 N   0  0  0  0  0  0  0  0  0  0  0  0
   19.9355   34.8548   52.8398 C   0  0  0  0  0  0  0  0  0  0  0  0
   19.6724   34.8098   51.3655 C   0  0  0  0  0  0  0  0  0  0  0  0
   20.3680   36.0146   50.7898 C   0  0  0  0  0  0  0  0  0  0  0  0
   20.2081   36.0970   49.3142 C   0  0  0  0  0  0  0  0  0  0  0  0
   20.8241   34.9098   48.8343 N   0  0  0  0  0  0  0  0  0  0  0  0
   22.0523   35.0690   48.2713 C   0  0  0  0  0  0  0  0  0  0  0  0
   23.0343   34.0966   48.4902 C   0  0  0  0  0  0  0  0  0  0  0  0
   23.2865   32.9050   48.5179 C   0  0  0  0  0  0  0  0  0  0  0  0
   24.5601   32.2761   49.0022 C   0  0  0  0  0  0  0  0  0  0  0  0
   24.6639   32.4122   50.4763 N   0  0  0  0  0  0  0  0  0  0  0  0
   23.5067   31.9095   51.2039 C   0  0  0  0  0  0  0  0  0  0  0  0
   25.9140   31.9347   51.0673 C   0  0  0  0  0  0  0  0  0  0  0  0
   25.7664   33.0028   48.3855 C   0  0  0  0  0  0  0  0  0  0  0  0
   24.5981   30.8082   48.6039 C   0  0  0  0  0  0  0  0  0  0  0  0
   22.3457   36.0672   47.6566 O   0  0  0  0  0  0  0  0  0  0  0  0
   20.1360   33.6797   49.2271 C   0  0  0  0  0  0  0  0  0  0  0  0
   20.2136   33.5461   50.7134 C   0  0  0  0  0  0  0  0  0  0  0  0
   20.7860   34.1263   53.3258 O   0  0  0  0  0  0  0  0  0  0  0  0
   18.1041   36.5171   53.1242 C   0  0  0  0  0  0  0  0  0  0  0  0
   17.6205   35.8093   56.0181 O   0  0  0  0  0  0  0  0  0  0  0  0
   18.9469   32.1685   57.3796 C   0  0  0  0  0  0  0  0  0  0  0  0
   18.4654   31.4629   56.1583 C   0  0  0  0  0  0  0  0  0  0  0  0
   17.2536   30.6631   56.5656 C   0  0  0  0  0  0  0  0  0  0  0  0
   16.9777   29.6896   55.5293 N   0  0  0  0  0  0  0  0  0  0  0  0
   16.7472   30.2916   54.2312 C   0  0  0  0  0  0  0  0  0  0  0  0
   17.8100   31.3779   53.8992 C   0  0  0  0  0  0  0  0  0  0  0  0
   18.0692   32.2310   55.0413 O   0  0  0  0  0  0  0  0  0  0  0  0
   19.7049   34.5642   59.2537 O   0  0  0  0  0  0  0  0  0  0  0  0
   17.6081   34.4773   61.1479 C   0  0  0  0  0  0  0  0  0  0  0  0
   17.4506   33.2367   62.0275 C   0  0  0  0  0  0  0  0  0  0  0  0
   16.2260   32.4488   61.6355 C   0  0  0  0  0  0  0  0  0  0  0  0
   14.1708   32.0350   59.0471 O   0  0  0  0  0  0  0  0  0  0  0  0
   15.5911   27.0210   57.6681 C   0  0  0  0  0  0  0  0  0  0  0  0
   15.5840   25.9506   56.7893 C   0  0  0  0  0  0  0  0  0  0  0  0
   16.0310   26.1376   55.4632 C   0  0  0  0  0  0  0  0  0  0  0  0
   16.4798   27.3904   55.0568 C   0  0  0  0  0  0  0  0  0  0  0  0
   16.4879   28.4496   55.9410 C   0  0  0  0  0  0  0  0  0  0  0  0
   16.0506   28.2721   57.2705 C   0  0  0  0  0  0  0  0  0  0  0  0
   18.3270   34.7750   51.0949 F   0  0  0  0  0  0  0  0  0  0  0  0
  1  2  1  0  0  0  0
  2  3  1  0  0  0  0
  2  5  1  0  0  0  0
  3  4  1  0  0  0  0
  5  6  4  0  0  0  0
  5 10  4  0  0  0  0
  6  7  4  0  0  0  0
  7  8  4  0  0  0  0
  8  9  4  0  0  0  0
  9 10  4  0  0  0  0
 10 11  1  0  0  0  0
 11 12  4  0  0  0  0
 11 15  4  0  0  0  0
 12 13  1  0  0  0  0
 12 68  4  0  0  0  0
 13 14  1  0  0  0  0
 15 16  1  0  0  0  0
 15 67  4  0  0  0  0
 16 17  1  0  0  0  0
 17 18  1  0  0  0  0
 17 19  1  0  0  0  0
 17 20  1  0  0  0  0
 20 21  1  0  0  0  0
 21 22  1  0  0  0  0
 22 23  1  0  0  0  0
 22 66  2  0  0  0  0
 23 24  1  0  0  0  0
 23 65  1  0  0  0  0
 24 25  1  0  0  0  0
 25 26  1  0  0  0  0
 25 63  1  0  0  0  0
 26 27  1  0  0  0  0
 26 62  2  0  0  0  0
 27 28  1  0  0  0  0
 27 55  1  0  0  0  0
 28 29  1  0  0  0  0
 29 30  1  0  0  0  0
 29 54  2  0  0  0  0
 30 31  1  0  0  0  0
 30 34  1  0  0  0  0
 31 32  1  0  0  0  0
 31 33  1  0  0  0  0
 34 35  1  0  0  0  0
 34 53  1  0  0  0  0
 35 36  1  0  0  0  0
 35 52  2  0  0  0  0
 36 37  1  0  0  0  0
 36 51  1  0  0  0  0
 36 73  1  0  0  0  0
 37 38  1  0  0  0  0
 38 39  1  0  0  0  0
 39 40  1  0  0  0  0
 39 50  1  0  0  0  0
 40 41  1  0  0  0  0
 40 49  2  0  0  0  0
 41 42  1  0  0  0  0
 42 43  1  0  0  0  0
 43 44  1  0  0  0  0
 43 47  1  0  0  0  0
 43 48  1  0  0  0  0
 44 45  1  0  0  0  0
 44 46  1  0  0  0  0
 50 51  1  0  0  0  0
 55 56  1  0  0  0  0
 56 57  1  0  0  0  0
 56 61  1  0  0  0  0
 57 58  1  0  0  0  0
 58 59  1  0  0  0  0
 58 71  1  0  0  0  0
 59 60  1  0  0  0  0
 60 61  1  0  0  0  0
 63 64  1  0  0  0  0
 64 65  1  0  0  0  0
 67 68  4  0  0  0  0
 67 72  4  0  0  0  0
 68 69  4  0  0  0  0
 69 70  4  0  0  0  0
 70 71  4  0  0  0  0
 71 72  4  0  0  0  0
M  END
$$$$
