obj16
  PyMOL3.1          3D                             0

 73 79  0  0  0  0  0  0  0  0999 V2000
    9.8452   25.4815   54.9175 C   0  0  0  0  0  0  0  0  0  0  0  0
   10.0102   26.9807   54.8901 C   0  0  0  0  0  0  0  0  0  0  0  0
    9.5730   27.5662   53.6985 O   0  0  0  0  0  0  0  0  0  0  0  0
   10.5178   27.6158   52.6429 C   0  0  0  0  0  0  0  0  0  0  0  0
    9.2817   27.6361   56.0007 C   0  0  0  0  0  0  0  0  0  0  0  0
    8.1611   27.0878   56.4391 N   0  0  0  0  0  0  0  0  0  0  0  0
    7.4612   27.6552   57.4309 C   0  0  0  0  0  0  0  0  0  0  0  0
    7.9129   28.8231   58.0363 C   0  0  0  0  0  0  0  0  0  0  0  0
    9.0631   29.3870   57.5819 C   0  0  0  0  0  0  0  0  0  0  0  0
    9.7349   28.8045   56.5515 C   0  0  0  0  0  0  0  0  0  0  0  0
   10.9540   29.4029   56.0716 C   0  0  0  0  0  0  0  0  0  0  0  0
   10.9980   30.3278   55.0630 N   0  0  0  0  0  0  0  0  0  0  0  0
    9.8814   30.9398   54.3469 C   0  0  0  0  0  0  0  0  0  0  0  0
    9.6193   32.3497   54.9036 C   0  0  0  0  0  0  0  0  0  0  0  0
   12.2419   29.0919   56.4822 C   0  0  0  0  0  0  0  0  0  0  0  0
   12.7115   28.1584   57.5399 C   0  0  0  0  0  0  0  0  0  0  0  0
   12.9471   28.8014   58.9504 C   0  0  0  0  0  0  0  0  0  0  0  0
   14.1994   28.1583   59.5435 C   0  0  0  0  0  0  0  0  0  0  0  0
   11.7568   28.4912   59.8923 C   0  0  0  0  0  0  0  0  0  0  0  0
   13.1015   30.3123   58.9506 C   0  0  0  0  0  0  0  0  0  0  0  0
   14.2855   30.7997   59.5025 O   0  0  0  0  0  0  0  0  0  0  0  0
   14.5536   32.1236   59.3694 C   0  0  0  0  0  0  0  0  0  0  0  0
   15.8846   32.5342   59.9268 C   0  0  0  0  0  0  0  0  0  0  0  0
   16.3113   33.7556   59.2465 N   0  0  0  0  0  0  0  0  0  0  0  0
   17.5147   34.2385   59.7016 N   0  0  0  0  0  0  0  0  0  0  0  0
   18.6042   34.2838   58.8847 C   0  0  0  0  0  0  0  0  0  0  0  0
   18.4134   33.8675   57.4449 C   0  0  0  0  0  0  0  0  0  0  0  0
   19.2383   34.6353   56.5356 N   0  0  0  0  0  0  0  0  0  0  0  0
   18.7586   35.5657   55.7030 C   0  0  0  0  0  0  0  0  0  0  0  0
   19.7568   36.0961   54.7306 C   0  0  0  0  0  0  0  0  0  0  0  0
   20.0259   37.6212   54.8720 C   0  0  0  0  0  0  0  0  0  0  0  0
   20.9797   38.0882   53.7850 C   0  0  0  0  0  0  0  0  0  0  0  0
   20.6401   37.9060   56.2540 C   0  0  0  0  0  0  0  0  0  0  0  0
   19.3330   35.7479   53.3997 N   0  0  0  0  0  0  0  0  0  0  0  0
   19.9787   34.7278   52.7727 C   0  0  0  0  0  0  0  0  0  0  0  0
   19.7390   34.4657   51.3065 C   0  0  0  0  0  0  0  0  0  0  0  0
   20.7659   33.4762   50.7525 C   0  0  0  0  0  0  0  0  0  0  0  0
   20.6423   33.3463   49.2849 C   0  0  0  0  0  0  0  0  0  0  0  0
   20.6674   34.6751   48.6669 N   0  0  0  0  0  0  0  0  0  0  0  0
   21.6180   35.1217   47.8039 C   0  0  0  0  0  0  0  0  0  0  0  0
   22.8560   34.4879   47.7328 C   0  0  0  0  0  0  0  0  0  0  0  0
   23.9114   34.0618   47.5855 C   0  0  0  0  0  0  0  0  0  0  0  0
   25.2416   33.5208   47.5260 C   0  0  0  0  0  0  0  0  0  0  0  0
   25.4972   32.6943   48.7170 N   0  0  0  0  0  0  0  0  0  0  0  0
   25.3819   33.4419   49.9897 C   0  0  0  0  0  0  0  0  0  0  0  0
   24.7020   31.4538   48.7509 C   0  0  0  0  0  0  0  0  0  0  0  0
   26.2499   34.6716   47.4767 C   0  0  0  0  0  0  0  0  0  0  0  0
   25.3644   32.6692   46.2647 C   0  0  0  0  0  0  0  0  0  0  0  0
   21.4230   36.1180   47.1316 O   0  0  0  0  0  0  0  0  0  0  0  0
   19.6863   35.5951   49.1085 C   0  0  0  0  0  0  0  0  0  0  0  0
   19.9471   35.7694   50.5675 C   0  0  0  0  0  0  0  0  0  0  0  0
   20.7834   34.0244   53.3880 O   0  0  0  0  0  0  0  0  0  0  0  0
   18.1864   36.5148   52.8338 C   0  0  0  0  0  0  0  0  0  0  0  0
   17.5876   35.9063   55.7112 O   0  0  0  0  0  0  0  0  0  0  0  0
   18.8246   32.3804   57.3080 C   0  0  0  0  0  0  0  0  0  0  0  0
   18.3830   31.8325   55.9626 C   0  0  0  0  0  0  0  0  0  0  0  0
   16.9152   31.5254   56.0473 C   0  0  0  0  0  0  0  0  0  0  0  0
   16.4558   30.8970   54.7941 N   0  0  0  0  0  0  0  0  0  0  0  0
   17.2519   29.6706   54.5056 C   0  0  0  0  0  0  0  0  0  0  0  0
   18.7285   30.0611   54.3914 C   0  0  0  0  0  0  0  0  0  0  0  0
   19.1301   30.6644   55.6378 O   0  0  0  0  0  0  0  0  0  0  0  0
   19.7032   34.5767   59.2805 O   0  0  0  0  0  0  0  0  0  0  0  0
   17.5470   34.5760   61.1230 C   0  0  0  0  0  0  0  0  0  0  0  0
   17.1282   33.3271   61.9309 C   0  0  0  0  0  0  0  0  0  0  0  0
   15.8068   32.7893   61.4355 C   0  0  0  0  0  0  0  0  0  0  0  0
   13.7928   32.8835   58.8304 O   0  0  0  0  0  0  0  0  0  0  0  0
   13.0695   29.8629   55.6964 C   0  0  0  0  0  0  0  0  0  0  0  0
   12.2816   30.6289   54.8431 C   0  0  0  0  0  0  0  0  0  0  0  0
   12.9092   31.5204   53.9378 C   0  0  0  0  0  0  0  0  0  0  0  0
   14.2964   31.6019   53.9520 C   0  0  0  0  0  0  0  0  0  0  0  0
   15.0646   30.7918   54.8087 C   0  0  0  0  0  0  0  0  0  0  0  0
   14.4585   29.9267   55.6790 C   0  0  0  0  0  0  0  0  0  0  0  0
   18.4480   33.9720   51.1432 F   0  0  0  0  0  0  0  0  0  0  0  0
  1  2  1  0  0  0  0
  2  3  1  0  0  0  0
  2  5  1  0  0  0  0
  3  4  1  0  0  0  0
  5  6  4  0  0  0  0
  5 10  4  0  0  0  0
  6  7  4  0  0  0  0
  7  8  4  0  0  0  0
  8  9  4  0  0  0  0
  9 10  4  0  0  0  0
 10 11  1  0  0  0  0
 11 12  4  0  0  0  0
 11 15  4  0  0  0  0
 12 13  1  0  0  0  0
 12 68  4  0  0  0  0
 13 14  1  0  0  0  0
 15 16  1  0  0  0  0
 15 67  4  0  0  0  0
 16 17  1  0  0  0  0
 17 18  1  0  0  0  0
 17 19  1  0  0  0  0
 17 20  1  0  0  0  0
 20 21  1  0  0  0  0
 21 22  1  0  0  0  0
 22 23  1  0  0  0  0
 22 66  2  0  0  0  0
 23 24  1  0  0  0  0
 23 65  1  0  0  0  0
 24 25  1  0  0  0  0
 25 26  1  0  0  0  0
 25 63  1  0  0  0  0
 26 27  1  0  0  0  0
 26 62  2  0  0  0  0
 27 28  1  0  0  0  0
 27 55  1  0  0  0  0
 28 29  1  0  0  0  0
 29 30  1  0  0  0  0
 29 54  2  0  0  0  0
 30 31  1  0  0  0  0
 30 34  1  0  0  0  0
 31 32  1  0  0  0  0
 31 33  1  0  0  0  0
 34 35  1  0  0  0  0
 34 53  1  0  0  0  0
 35 36  1  0  0  0  0
 35 52  2  0  0  0  0
 36 37  1  0  0  0  0
 36 51  1  0  0  0  0
 36 73  1  0  0  0  0
 37 38  1  0  0  0  0
 38 39  1  0  0  0  0
 39 40  1  0  0  0  0
 39 50  1  0  0  0  0
 40 41  1  0  0  0  0
 40 49  2  0  0  0  0
 41 42  1  0  0  0  0
 42 43  1  0  0  0  0
 43 44  1  0  0  0  0
 43 47  1  0  0  0  0
 43 48  1  0  0  0  0
 44 45  1  0  0  0  0
 44 46  1  0  0  0  0
 50 51  1  0  0  0  0
 55 56  1  0  0  0  0
 56 57  1  0  0  0  0
 56 61  1  0  0  0  0
 57 58  1  0  0  0  0
 58 59  1  0  0  0  0
 58 71  1  0  0  0  0
 59 60  1  0  0  0  0
 60 61  1  0  0  0  0
 63 64  1  0  0  0  0
 64 65  1  0  0  0  0
 67 68  4  0  0  0  0
 67 72  4  0  0  0  0
 68 69  4  0  0  0  0
 69 70  4  0  0  0  0
 70 71  4  0  0  0  0
 71 72  4  0  0  0  0
M  END
$$$$
