mol_ETKDG3_18
     RDKit          3D

151157  0  0  0  0  0  0  0  0999 V2000
    1.4868    7.1097   -8.3982 C   0  0  0  0  0  0  0  0  0  0  0  0
    1.5495    5.6271   -8.0166 C   0  0  2  0  0  0  0  0  0  0  0  0
    2.8324    5.0922   -8.3766 O   0  0  0  0  0  0  0  0  0  0  0  0
    3.8225    5.3127   -7.3814 C   0  0  0  0  0  0  0  0  0  0  0  0
    0.4574    4.8195   -8.7151 C   0  0  0  0  0  0  0  0  0  0  0  0
    0.1086    5.2172   -9.9762 N   0  0  0  0  0  0  0  0  0  0  0  0
   -0.8521    4.5248  -10.6223 C   0  0  0  0  0  0  0  0  0  0  0  0
   -1.5178    3.4456  -10.0761 C   0  0  0  0  0  0  0  0  0  0  0  0
   -1.1646    3.0427   -8.7948 C   0  0  0  0  0  0  0  0  0  0  0  0
   -0.1567    3.7170   -8.0925 C   0  0  0  0  0  0  0  0  0  0  0  0
    0.2081    3.2474   -6.7485 C   0  0  0  0  0  0  0  0  0  0  0  0
   -0.5055    3.5731   -5.6114 N   0  0  0  0  0  0  0  0  0  0  0  0
   -1.7554    4.3231   -5.5755 C   0  0  0  0  0  0  0  0  0  0  0  0
   -1.5425    5.8204   -5.4459 C   0  0  0  0  0  0  0  0  0  0  0  0
    1.2937    2.4628   -6.3537 C   0  0  0  0  0  0  0  0  0  0  0  0
    2.3369    1.8727   -7.2731 C   0  0  0  0  0  0  0  0  0  0  0  0
    2.1269    0.4030   -7.7433 C   0  0  0  0  0  0  0  0  0  0  0  0
    3.1375    0.1371   -8.8865 C   0  0  0  0  0  0  0  0  0  0  0  0
    0.7174    0.1539   -8.3050 C   0  0  0  0  0  0  0  0  0  0  0  0
    2.3860   -0.6052   -6.6047 C   0  0  0  0  0  0  0  0  0  0  0  0
    3.7532   -0.4995   -6.1803 O   0  0  0  0  0  0  0  0  0  0  0  0
    4.0983   -1.3031   -5.1396 C   0  0  0  0  0  0  0  0  0  0  0  0
    5.5635   -1.0660   -4.7703 C   0  0  1  0  0  0  0  0  0  0  0  0
    5.9499   -1.9844   -3.6892 N   0  0  0  0  0  0  0  0  0  0  0  0
    7.2532   -1.7021   -3.2314 N   0  0  0  0  0  0  0  0  0  0  0  0
    7.6038   -1.5016   -1.8914 C   0  0  0  0  0  0  0  0  0  0  0  0
    6.4674   -1.1733   -0.8829 C   0  0  1  0  0  0  0  0  0  0  0  0
    6.8316   -1.6952    0.4331 N   0  0  0  0  0  0  0  0  0  0  0  0
    6.8709   -3.0620    0.6367 C   0  0  0  0  0  0  0  0  0  0  0  0
    7.1672   -3.4654    2.0985 C   0  0  2  0  0  0  0  0  0  0  0  0
    7.9708   -4.7899    2.1839 C   0  0  0  0  0  0  0  0  0  0  0  0
    8.1337   -5.2581    3.6354 C   0  0  0  0  0  0  0  0  0  0  0  0
    9.3644   -4.6154    1.5624 C   0  0  0  0  0  0  0  0  0  0  0  0
    5.8814   -3.4926    2.8446 N   0  0  0  0  0  0  0  0  0  0  0  0
    5.4836   -2.2886    3.4421 C   0  0  0  0  0  0  0  0  0  0  0  0
    4.2338   -2.2900    4.3537 C   0  0  0  0  0  0  0  0  0  0  0  0
    4.5057   -3.1521    5.6017 C   0  0  0  0  0  0  0  0  0  0  0  0
    3.3681   -3.0305    6.6122 C   0  0  0  0  0  0  0  0  0  0  0  0
    3.1446   -1.6281    6.9212 N   0  0  0  0  0  0  0  0  0  0  0  0
    3.7014   -1.1052    8.0858 C   0  0  0  0  0  0  0  0  0  0  0  0
    3.7587    0.3323    8.2366 C   0  0  0  0  0  0  0  0  0  0  0  0
    3.8562    1.5279    8.3250 C   0  0  0  0  0  0  0  0  0  0  0  0
    4.0216    2.9987    8.4004 C   0  0  0  0  0  0  0  0  0  0  0  0
    5.2129    3.4697    7.6384 N   0  0  0  0  0  0  0  0  0  0  0  0
    5.1461    3.2220    6.1953 C   0  0  0  0  0  0  0  0  0  0  0  0
    6.4905    2.9684    8.1564 C   0  0  0  0  0  0  0  0  0  0  0  0
    4.1272    3.4099    9.8871 C   0  0  0  0  0  0  0  0  0  0  0  0
    2.7358    3.6632    7.8549 C   0  0  0  0  0  0  0  0  0  0  0  0
    4.1780   -1.7936    8.9808 O   0  0  0  0  0  0  0  0  0  0  0  0
    2.7581   -0.8172    5.7736 C   0  0  0  0  0  0  0  0  0  0  0  0
    3.8751   -0.8418    4.7404 C   0  0  0  0  0  0  0  0  0  0  0  0
    6.1597   -1.2627    3.2964 O   0  0  0  0  0  0  0  0  0  0  0  0
    4.8813   -4.4715    2.4169 C   0  0  0  0  0  0  0  0  0  0  0  0
    6.6185   -3.8761   -0.2487 O   0  0  0  0  0  0  0  0  0  0  0  0
    6.3123    0.3594   -0.8510 C   0  0  0  0  0  0  0  0  0  0  0  0
    4.8874    0.8635   -0.5741 C   0  0  1  0  0  0  0  0  0  0  0  0
    4.0473    0.9718   -1.8741 C   0  0  0  0  0  0  0  0  0  0  0  0
    2.7001    1.4712   -1.5417 N   0  0  0  0  0  0  0  0  0  0  0  0
    2.0390    0.6123   -0.5288 C   0  0  0  0  0  0  0  0  0  0  0  0
    2.9394    0.4996    0.7138 C   0  0  0  0  0  0  0  0  0  0  0  0
    4.2501    0.0081    0.3914 O   0  0  0  0  0  0  0  0  0  0  0  0
    8.7893   -1.4619   -1.5358 O   0  0  0  0  0  0  0  0  0  0  0  0
    8.2896   -1.9442   -4.2415 C   0  0  0  0  0  0  0  0  0  0  0  0
    7.9783   -1.1550   -5.5174 C   0  0  0  0  0  0  0  0  0  0  0  0
    6.5142   -1.3143   -5.9494 C   0  0  0  0  0  0  0  0  0  0  0  0
    3.3246   -2.0314   -4.5324 O   0  0  0  0  0  0  0  0  0  0  0  0
    1.2790    2.4176   -4.9150 C   0  0  0  0  0  0  0  0  0  0  0  0
    0.1474    3.1091   -4.4870 C   0  0  0  0  0  0  0  0  0  0  0  0
   -0.1536    3.2609   -3.1277 C   0  0  0  0  0  0  0  0  0  0  0  0
    0.7175    2.6956   -2.1902 C   0  0  0  0  0  0  0  0  0  0  0  0
    1.8665    1.9768   -2.5485 C   0  0  0  0  0  0  0  0  0  0  0  0
    2.1411    1.8661   -3.9260 C   0  0  0  0  0  0  0  0  0  0  0  0
    3.1370   -2.8036    3.7091 F   0  0  0  0  0  0  0  0  0  0  0  0
    2.1911    7.6953   -7.7964 H   0  0  0  0  0  0  0  0  0  0  0  0
    1.7720    7.2661   -9.4452 H   0  0  0  0  0  0  0  0  0  0  0  0
    0.4835    7.5225   -8.2422 H   0  0  0  0  0  0  0  0  0  0  0  0
    1.4058    5.5639   -6.9312 H   0  0  0  0  0  0  0  0  0  0  0  0
    3.5367    4.8340   -6.4391 H   0  0  0  0  0  0  0  0  0  0  0  0
    4.7574    4.8639   -7.7258 H   0  0  0  0  0  0  0  0  0  0  0  0
    3.9907    6.3819   -7.2242 H   0  0  0  0  0  0  0  0  0  0  0  0
   -1.0777    4.8745  -11.6251 H   0  0  0  0  0  0  0  0  0  0  0  0
   -2.2838    2.9239  -10.6367 H   0  0  0  0  0  0  0  0  0  0  0  0
   -1.6678    2.1891   -8.3453 H   0  0  0  0  0  0  0  0  0  0  0  0
   -2.3283    4.0917   -6.4771 H   0  0  0  0  0  0  0  0  0  0  0  0
   -2.3481    3.9474   -4.7347 H   0  0  0  0  0  0  0  0  0  0  0  0
   -0.9813    6.0668   -4.5392 H   0  0  0  0  0  0  0  0  0  0  0  0
   -0.9880    6.2213   -6.2995 H   0  0  0  0  0  0  0  0  0  0  0  0
   -2.5066    6.3376   -5.4015 H   0  0  0  0  0  0  0  0  0  0  0  0
    2.3998    2.5080   -8.1658 H   0  0  0  0  0  0  0  0  0  0  0  0
    3.3181    1.9743   -6.7913 H   0  0  0  0  0  0  0  0  0  0  0  0
    4.1671    0.3394   -8.5710 H   0  0  0  0  0  0  0  0  0  0  0  0
    3.0890   -0.9047   -9.2238 H   0  0  0  0  0  0  0  0  0  0  0  0
    2.9298    0.7758   -9.7533 H   0  0  0  0  0  0  0  0  0  0  0  0
   -0.0555    0.2986   -7.5439 H   0  0  0  0  0  0  0  0  0  0  0  0
    0.5098    0.8167   -9.1504 H   0  0  0  0  0  0  0  0  0  0  0  0
    0.6172   -0.8745   -8.6722 H   0  0  0  0  0  0  0  0  0  0  0  0
    1.7125   -0.4230   -5.7589 H   0  0  0  0  0  0  0  0  0  0  0  0
    2.2176   -1.6294   -6.9640 H   0  0  0  0  0  0  0  0  0  0  0  0
    5.6397   -0.0292   -4.4170 H   0  0  0  0  0  0  0  0  0  0  0  0
    5.2298   -2.0691   -2.9726 H   0  0  0  0  0  0  0  0  0  0  0  0
    5.5355   -1.6656   -1.1613 H   0  0  0  0  0  0  0  0  0  0  0  0
    6.5790   -1.1474    1.2540 H   0  0  0  0  0  0  0  0  0  0  0  0
    7.8048   -2.6841    2.5344 H   0  0  0  0  0  0  0  0  0  0  0  0
    7.4621   -5.5840    1.6240 H   0  0  0  0  0  0  0  0  0  0  0  0
    7.1674   -5.4896    4.0930 H   0  0  0  0  0  0  0  0  0  0  0  0
    8.7410   -6.1683    3.6819 H   0  0  0  0  0  0  0  0  0  0  0  0
    8.6250   -4.4925    4.2459 H   0  0  0  0  0  0  0  0  0  0  0  0
    9.9371   -5.5474    1.6266 H   0  0  0  0  0  0  0  0  0  0  0  0
    9.2985   -4.3436    0.5037 H   0  0  0  0  0  0  0  0  0  0  0  0
    9.9346   -3.8335    2.0779 H   0  0  0  0  0  0  0  0  0  0  0  0
    4.6197   -4.2077    5.3361 H   0  0  0  0  0  0  0  0  0  0  0  0
    5.4477   -2.8355    6.0682 H   0  0  0  0  0  0  0  0  0  0  0  0
    2.4386   -3.4414    6.2028 H   0  0  0  0  0  0  0  0  0  0  0  0
    3.6080   -3.5993    7.5163 H   0  0  0  0  0  0  0  0  0  0  0  0
    5.0883    2.1564    5.9500 H   0  0  0  0  0  0  0  0  0  0  0  0
    4.2967    3.7351    5.7333 H   0  0  0  0  0  0  0  0  0  0  0  0
    6.0319    3.6303    5.6961 H   0  0  0  0  0  0  0  0  0  0  0  0
    6.6708    3.3003    9.1824 H   0  0  0  0  0  0  0  0  0  0  0  0
    6.5618    1.8765    8.1211 H   0  0  0  0  0  0  0  0  0  0  0  0
    7.3259    3.3735    7.5738 H   0  0  0  0  0  0  0  0  0  0  0  0
    3.1992    3.1867   10.4288 H   0  0  0  0  0  0  0  0  0  0  0  0
    4.9210    2.8707   10.4159 H   0  0  0  0  0  0  0  0  0  0  0  0
    4.3155    4.4854    9.9892 H   0  0  0  0  0  0  0  0  0  0  0  0
    1.8742    3.4500    8.5007 H   0  0  0  0  0  0  0  0  0  0  0  0
    2.8427    4.7532    7.8039 H   0  0  0  0  0  0  0  0  0  0  0  0
    2.4634    3.2995    6.8572 H   0  0  0  0  0  0  0  0  0  0  0  0
    1.8359   -1.2413    5.3583 H   0  0  0  0  0  0  0  0  0  0  0  0
    2.5319    0.2117    6.0643 H   0  0  0  0  0  0  0  0  0  0  0  0
    4.7534   -0.3284    5.1511 H   0  0  0  0  0  0  0  0  0  0  0  0
    3.5543   -0.2855    3.8516 H   0  0  0  0  0  0  0  0  0  0  0  0
    4.1949   -4.7110    3.2281 H   0  0  0  0  0  0  0  0  0  0  0  0
    4.3096   -4.0502    1.5842 H   0  0  0  0  0  0  0  0  0  0  0  0
    5.3546   -5.4045    2.1055 H   0  0  0  0  0  0  0  0  0  0  0  0
    6.9662    0.7566   -0.0622 H   0  0  0  0  0  0  0  0  0  0  0  0
    6.6706    0.8167   -1.7826 H   0  0  0  0  0  0  0  0  0  0  0  0
    4.9704    1.8681   -0.1354 H   0  0  0  0  0  0  0  0  0  0  0  0
    4.5566    1.6579   -2.5620 H   0  0  0  0  0  0  0  0  0  0  0  0
    3.9602   -0.0127   -2.3479 H   0  0  0  0  0  0  0  0  0  0  0  0
    1.0669    0.9980   -0.2082 H   0  0  0  0  0  0  0  0  0  0  0  0
    1.8813   -0.3842   -0.9600 H   0  0  0  0  0  0  0  0  0  0  0  0
    3.0394    1.4711    1.2129 H   0  0  0  0  0  0  0  0  0  0  0  0
    2.4933   -0.1975    1.4297 H   0  0  0  0  0  0  0  0  0  0  0  0
    9.2778   -1.6616   -3.8645 H   0  0  0  0  0  0  0  0  0  0  0  0
    8.3082   -3.0217   -4.4452 H   0  0  0  0  0  0  0  0  0  0  0  0
    8.1687   -0.0907   -5.3296 H   0  0  0  0  0  0  0  0  0  0  0  0
    8.6482   -1.4647   -6.3258 H   0  0  0  0  0  0  0  0  0  0  0  0
    6.3588   -2.3244   -6.3519 H   0  0  0  0  0  0  0  0  0  0  0  0
    6.3015   -0.6186   -6.7692 H   0  0  0  0  0  0  0  0  0  0  0  0
   -1.0218    3.8184   -2.7928 H   0  0  0  0  0  0  0  0  0  0  0  0
    0.4954    2.8692   -1.1396 H   0  0  0  0  0  0  0  0  0  0  0  0
    3.0249    1.3443   -4.2701 H   0  0  0  0  0  0  0  0  0  0  0  0
  1  2  1  0
  2  3  1  0
  2  5  1  0
  3  4  1  0
  5  6  2  0
  5 10  1  0
  6  7  1  0
  7  8  2  0
  8  9  1  0
  9 10  2  0
 10 11  1  0
 11 12  1  0
 11 15  2  0
 12 13  1  0
 12 68  1  0
 13 14  1  0
 15 16  1  0
 15 67  1  0
 16 17  1  0
 17 18  1  0
 17 19  1  0
 17 20  1  0
 20 21  1  0
 21 22  1  0
 22 23  1  0
 22 66  2  0
 23 24  1  0
 23 65  1  0
 24 25  1  0
 25 26  1  0
 25 63  1  0
 26 27  1  0
 26 62  2  0
 27 28  1  0
 27 55  1  0
 28 29  1  0
 29 30  1  0
 29 54  2  0
 30 31  1  0
 30 34  1  0
 31 32  1  0
 31 33  1  0
 34 35  1  0
 34 53  1  0
 35 36  1  0
 35 52  2  0
 36 37  1  0
 36 51  1  0
 36 73  1  0
 37 38  1  0
 38 39  1  0
 39 40  1  0
 39 50  1  0
 40 41  1  0
 40 49  2  0
 42 43  1  0
 43 44  1  0
 43 47  1  0
 43 48  1  0
 44 45  1  0
 44 46  1  0
 50 51  1  0
 55 56  1  0
 56 57  1  0
 56 61  1  0
 57 58  1  0
 58 59  1  0
 58 71  1  0
 59 60  1  0
 60 61  1  0
 63 64  1  0
 64 65  1  0
 67 68  2  0
 67 72  1  0
 68 69  1  0
 69 70  2  0
 70 71  1  0
 71 72  2  0
  1 74  1  0
  1 75  1  0
  1 76  1  0
  2 77  1  1
  4 78  1  0
  4 79  1  0
  4 80  1  0
  7 81  1  0
  8 82  1  0
  9 83  1  0
 13 84  1  0
 13 85  1  0
 14 86  1  0
 14 87  1  0
 14 88  1  0
 16 89  1  0
 16 90  1  0
 18 91  1  0
 18 92  1  0
 18 93  1  0
 19 94  1  0
 19 95  1  0
 19 96  1  0
 20 97  1  0
 20 98  1  0
 23 99  1  1
 24100  1  0
 27101  1  6
 28102  1  0
 30103  1  1
 31104  1  0
 32105  1  0
 32106  1  0
 32107  1  0
 33108  1  0
 33109  1  0
 33110  1  0
 37111  1  0
 37112  1  0
 38113  1  0
 38114  1  0
 45115  1  0
 45116  1  0
 45117  1  0
 46118  1  0
 46119  1  0
 46120  1  0
 47121  1  0
 47122  1  0
 47123  1  0
 48124  1  0
 48125  1  0
 48126  1  0
 50127  1  0
 50128  1  0
 51129  1  0
 51130  1  0
 53131  1  0
 53132  1  0
 53133  1  0
 55134  1  0
 55135  1  0
 56136  1  1
 57137  1  0
 57138  1  0
 59139  1  0
 59140  1  0
 60141  1  0
 60142  1  0
 63143  1  0
 63144  1  0
 64145  1  0
 64146  1  0
 65147  1  0
 65148  1  0
 69149  1  0
 70150  1  0
 72151  1  0
 41 42  3  0
M  END
$$$$
