 energy: -221.293579380418 gnorm: 0.000324556318 xtb: 6.7.1 (edcfbbe)
          08232517103D

151157  0     0  0            999 V2000
    5.1560   -4.5399   -1.8478 C   0  0  0  0  0  0  0  0  0  0  0  0
    4.6766   -3.2901   -1.1062 C   0  0  0  0  0  0  0  0  0  0  0  0
    5.7403   -2.4126   -0.7648 O   0  0  0  0  0  0  0  0  0  0  0  0
    6.3149   -1.7387   -1.8539 C   0  0  0  0  0  0  0  0  0  0  0  0
    4.0067   -3.6893    0.1935 C   0  0  0  0  0  0  0  0  0  0  0  0
    4.6319   -4.6122    0.9085 N   0  0  0  0  0  0  0  0  0  0  0  0
    4.0936   -5.0303    2.0374 C   0  0  0  0  0  0  0  0  0  0  0  0
    2.8724   -4.5741    2.5110 C   0  0  0  0  0  0  0  0  0  0  0  0
    2.2093   -3.6128    1.7714 C   0  0  0  0  0  0  0  0  0  0  0  0
    2.7876   -3.1331    0.5945 C   0  0  0  0  0  0  0  0  0  0  0  0
    2.0852   -2.0929   -0.1630 C   0  0  0  0  0  0  0  0  0  0  0  0
    0.8792   -2.3671   -0.7683 N   0  0  0  0  0  0  0  0  0  0  0  0
    0.2722   -3.6620   -0.9050 C   0  0  0  0  0  0  0  0  0  0  0  0
    0.6878   -4.3358   -2.2129 C   0  0  0  0  0  0  0  0  0  0  0  0
    2.4120   -0.7658   -0.3267 C   0  0  0  0  0  0  0  0  0  0  0  0
    3.6471   -0.0473    0.1178 C   0  0  0  0  0  0  0  0  0  0  0  0
    3.5998    0.5729    1.5318 C   0  0  0  0  0  0  0  0  0  0  0  0
    3.6470   -0.5302    2.5897 C   0  0  0  0  0  0  0  0  0  0  0  0
    2.3395    1.4096    1.7354 C   0  0  0  0  0  0  0  0  0  0  0  0
    4.8483    1.4545    1.7202 C   0  0  0  0  0  0  0  0  0  0  0  0
    4.8205    2.6373    0.9115 O   0  0  0  0  0  0  0  0  0  0  0  0
    4.6966    3.8078    1.5346 C   0  0  0  0  0  0  0  0  0  0  0  0
    4.7519    4.9623    0.5397 C   0  0  0  0  0  0  0  0  0  0  0  0
    3.6927    5.9098    0.8615 N   0  0  0  0  0  0  0  0  0  0  0  0
    3.6811    6.9952   -0.0181 N   0  0  0  0  0  0  0  0  0  0  0  0
    2.8661    7.1917   -1.0717 C   0  0  0  0  0  0  0  0  0  0  0  0
    1.8528    6.0667   -1.3728 C   0  0  0  0  0  0  0  0  0  0  0  0
    0.5870    6.3061   -0.7080 N   0  0  0  0  0  0  0  0  0  0  0  0
    0.2480    5.6990    0.4354 C   0  0  0  0  0  0  0  0  0  0  0  0
   -1.1664    5.9933    0.9445 C   0  0  0  0  0  0  0  0  0  0  0  0
   -1.2928    7.3571    1.6495 C   0  0  0  0  0  0  0  0  0  0  0  0
   -0.8607    8.5073    0.7413 C   0  0  0  0  0  0  0  0  0  0  0  0
   -2.7471    7.5693    2.0728 C   0  0  0  0  0  0  0  0  0  0  0  0
   -1.5787    4.8674    1.7857 N   0  0  0  0  0  0  0  0  0  0  0  0
   -2.2343    3.8802    1.1487 C   0  0  0  0  0  0  0  0  0  0  0  0
   -2.4536    2.5213    1.8407 C   0  0  0  0  0  0  0  0  0  0  0  0
   -1.1255    1.7704    1.9768 C   0  0  0  0  0  0  0  0  0  0  0  0
   -1.3690    0.4088    2.6288 C   0  0  0  0  0  0  0  0  0  0  0  0
   -2.2987   -0.3514    1.8299 N   0  0  0  0  0  0  0  0  0  0  0  0
   -1.9162   -1.5245    1.2805 C   0  0  0  0  0  0  0  0  0  0  0  0
   -2.8690   -2.1125    0.3693 C   0  0  0  0  0  0  0  0  0  0  0  0
   -3.5464   -2.6959   -0.4364 C   0  0  0  0  0  0  0  0  0  0  0  0
   -4.3908   -3.3194   -1.4536 C   0  0  0  0  0  0  0  0  0  0  0  0
   -5.6237   -3.7644   -0.7952 N   0  0  0  0  0  0  0  0  0  0  0  0
   -6.6509   -4.2762   -1.6750 C   0  0  0  0  0  0  0  0  0  0  0  0
   -5.4057   -4.6719    0.3123 C   0  0  0  0  0  0  0  0  0  0  0  0
   -3.5801   -4.4461   -2.1276 C   0  0  0  0  0  0  0  0  0  0  0  0
   -4.7091   -2.2213   -2.4834 C   0  0  0  0  0  0  0  0  0  0  0  0
   -0.8479   -2.0618    1.5263 O   0  0  0  0  0  0  0  0  0  0  0  0
   -3.5814    0.2811    1.6481 C   0  0  0  0  0  0  0  0  0  0  0  0
   -3.4247    1.6672    1.0202 C   0  0  0  0  0  0  0  0  0  0  0  0
   -2.6323    4.0100   -0.0014 O   0  0  0  0  0  0  0  0  0  0  0  0
   -1.0413    4.8148    3.1295 C   0  0  0  0  0  0  0  0  0  0  0  0
    1.0135    4.9474    1.0264 O   0  0  0  0  0  0  0  0  0  0  0  0
    1.6388    5.9839   -2.8853 C   0  0  0  0  0  0  0  0  0  0  0  0
    0.6024    4.9379   -3.3112 C   0  0  0  0  0  0  0  0  0  0  0  0
    0.7963    3.6165   -2.5663 C   0  0  0  0  0  0  0  0  0  0  0  0
   -0.1921    2.6252   -2.9452 N   0  0  0  0  0  0  0  0  0  0  0  0
   -1.5374    3.1763   -2.8144 C   0  0  0  0  0  0  0  0  0  0  0  0
   -1.6479    4.5084   -3.5536 C   0  0  0  0  0  0  0  0  0  0  0  0
   -0.6998    5.4471   -3.0985 O   0  0  0  0  0  0  0  0  0  0  0  0
    2.9035    8.2096   -1.7422 O   0  0  0  0  0  0  0  0  0  0  0  0
    4.8551    7.8229    0.1818 C   0  0  0  0  0  0  0  0  0  0  0  0
    6.0919    6.9795   -0.1363 C   0  0  0  0  0  0  0  0  0  0  0  0
    6.0859    5.7075    0.7118 C   0  0  0  0  0  0  0  0  0  0  0  0
    4.5969    3.9529    2.7221 O   0  0  0  0  0  0  0  0  0  0  0  0
    1.3532   -0.1943   -1.0916 C   0  0  0  0  0  0  0  0  0  0  0  0
    0.4256   -1.2240   -1.3601 C   0  0  0  0  0  0  0  0  0  0  0  0
   -0.7003   -0.9647   -2.1318 C   0  0  0  0  0  0  0  0  0  0  0  0
   -0.8860    0.3089   -2.6214 C   0  0  0  0  0  0  0  0  0  0  0  0
    0.0189    1.3574   -2.3588 C   0  0  0  0  0  0  0  0  0  0  0  0
    1.1337    1.0918   -1.5784 C   0  0  0  0  0  0  0  0  0  0  0  0
   -3.0216    2.7063    3.1038 F   0  0  0  0  0  0  0  0  0  0  0  0
    5.9081   -5.0397   -1.2449 H   0  0  0  0  0  0  0  0  0  0  0  0
    4.3189   -5.2171   -1.9978 H   0  0  0  0  0  0  0  0  0  0  0  0
    5.5735   -4.2822   -2.8180 H   0  0  0  0  0  0  0  0  0  0  0  0
    3.9510   -2.7402   -1.7310 H   0  0  0  0  0  0  0  0  0  0  0  0
    6.9870   -0.9935   -1.4305 H   0  0  0  0  0  0  0  0  0  0  0  0
    6.8909   -2.4107   -2.4986 H   0  0  0  0  0  0  0  0  0  0  0  0
    5.5479   -1.2354   -2.4566 H   0  0  0  0  0  0  0  0  0  0  0  0
    4.6637   -5.7767    2.5756 H   0  0  0  0  0  0  0  0  0  0  0  0
    2.4549   -4.9592    3.4285 H   0  0  0  0  0  0  0  0  0  0  0  0
    1.2520   -3.2199    2.0851 H   0  0  0  0  0  0  0  0  0  0  0  0
    0.5692   -4.2819   -0.0571 H   0  0  0  0  0  0  0  0  0  0  0  0
   -0.8124   -3.5349   -0.8669 H   0  0  0  0  0  0  0  0  0  0  0  0
    0.1931   -5.2983   -2.3137 H   0  0  0  0  0  0  0  0  0  0  0  0
    0.4203   -3.7109   -3.0622 H   0  0  0  0  0  0  0  0  0  0  0  0
    1.7643   -4.4935   -2.2274 H   0  0  0  0  0  0  0  0  0  0  0  0
    4.4905   -0.7389    0.0923 H   0  0  0  0  0  0  0  0  0  0  0  0
    3.8435    0.7586   -0.5938 H   0  0  0  0  0  0  0  0  0  0  0  0
    3.6887   -0.1028    3.5896 H   0  0  0  0  0  0  0  0  0  0  0  0
    2.7566   -1.1470    2.5161 H   0  0  0  0  0  0  0  0  0  0  0  0
    4.5177   -1.1666    2.4467 H   0  0  0  0  0  0  0  0  0  0  0  0
    2.3241    1.8318    2.7382 H   0  0  0  0  0  0  0  0  0  0  0  0
    2.2847    2.2291    1.0236 H   0  0  0  0  0  0  0  0  0  0  0  0
    1.4674    0.7781    1.5998 H   0  0  0  0  0  0  0  0  0  0  0  0
    4.9340    1.7636    2.7664 H   0  0  0  0  0  0  0  0  0  0  0  0
    5.7447    0.9017    1.4258 H   0  0  0  0  0  0  0  0  0  0  0  0
    4.6775    4.5559   -0.4846 H   0  0  0  0  0  0  0  0  0  0  0  0
    2.7757    5.4786    0.9776 H   0  0  0  0  0  0  0  0  0  0  0  0
    2.2584    5.1237   -0.9945 H   0  0  0  0  0  0  0  0  0  0  0  0
   -0.1058    6.7957   -1.2537 H   0  0  0  0  0  0  0  0  0  0  0  0
   -1.8427    5.9862    0.0814 H   0  0  0  0  0  0  0  0  0  0  0  0
   -0.6446    7.3668    2.5305 H   0  0  0  0  0  0  0  0  0  0  0  0
   -1.0512    9.4517    1.2462 H   0  0  0  0  0  0  0  0  0  0  0  0
    0.1998    8.4630    0.5089 H   0  0  0  0  0  0  0  0  0  0  0  0
   -1.4290    8.5034   -0.1866 H   0  0  0  0  0  0  0  0  0  0  0  0
   -2.8405    8.4866    2.6493 H   0  0  0  0  0  0  0  0  0  0  0  0
   -3.3813    7.6506    1.1927 H   0  0  0  0  0  0  0  0  0  0  0  0
   -3.1167    6.7450    2.6766 H   0  0  0  0  0  0  0  0  0  0  0  0
   -0.7183    1.6332    0.9729 H   0  0  0  0  0  0  0  0  0  0  0  0
   -0.4042    2.3360    2.5626 H   0  0  0  0  0  0  0  0  0  0  0  0
   -0.4399   -0.1600    2.6973 H   0  0  0  0  0  0  0  0  0  0  0  0
   -1.7798    0.5489    3.6357 H   0  0  0  0  0  0  0  0  0  0  0  0
   -7.5540   -4.4238   -1.0825 H   0  0  0  0  0  0  0  0  0  0  0  0
   -6.8764   -3.5561   -2.4566 H   0  0  0  0  0  0  0  0  0  0  0  0
   -6.3910   -5.2404   -2.1389 H   0  0  0  0  0  0  0  0  0  0  0  0
   -4.6035   -4.2949    0.9434 H   0  0  0  0  0  0  0  0  0  0  0  0
   -6.3208   -4.7162    0.9036 H   0  0  0  0  0  0  0  0  0  0  0  0
   -5.1567   -5.6951   -0.0076 H   0  0  0  0  0  0  0  0  0  0  0  0
   -3.2405   -5.1711   -1.3913 H   0  0  0  0  0  0  0  0  0  0  0  0
   -4.1899   -4.9533   -2.8717 H   0  0  0  0  0  0  0  0  0  0  0  0
   -2.7087   -4.0276   -2.6250 H   0  0  0  0  0  0  0  0  0  0  0  0
   -5.4419   -1.5321   -2.0715 H   0  0  0  0  0  0  0  0  0  0  0  0
   -3.8045   -1.6646   -2.7170 H   0  0  0  0  0  0  0  0  0  0  0  0
   -5.0927   -2.6505   -3.4054 H   0  0  0  0  0  0  0  0  0  0  0  0
   -4.2094   -0.3490    1.0165 H   0  0  0  0  0  0  0  0  0  0  0  0
   -4.0593    0.3859    2.6308 H   0  0  0  0  0  0  0  0  0  0  0  0
   -4.3937    2.1649    0.9746 H   0  0  0  0  0  0  0  0  0  0  0  0
   -3.0340    1.5832    0.0064 H   0  0  0  0  0  0  0  0  0  0  0  0
   -1.3525    5.6993    3.6847 H   0  0  0  0  0  0  0  0  0  0  0  0
   -1.4094    3.9508    3.6669 H   0  0  0  0  0  0  0  0  0  0  0  0
    0.0490    4.7849    3.0899 H   0  0  0  0  0  0  0  0  0  0  0  0
    1.3186    6.9642   -3.2427 H   0  0  0  0  0  0  0  0  0  0  0  0
    2.5941    5.7512   -3.3575 H   0  0  0  0  0  0  0  0  0  0  0  0
    0.7231    4.7456   -4.3922 H   0  0  0  0  0  0  0  0  0  0  0  0
    1.7882    3.2377   -2.8221 H   0  0  0  0  0  0  0  0  0  0  0  0
    0.7324    3.7990   -1.4831 H   0  0  0  0  0  0  0  0  0  0  0  0
   -2.2621    2.4866   -3.2443 H   0  0  0  0  0  0  0  0  0  0  0  0
   -1.7936    3.3471   -1.7596 H   0  0  0  0  0  0  0  0  0  0  0  0
   -1.5117    4.3489   -4.6346 H   0  0  0  0  0  0  0  0  0  0  0  0
   -2.6286    4.9493   -3.3698 H   0  0  0  0  0  0  0  0  0  0  0  0
    4.7760    8.6869   -0.4779 H   0  0  0  0  0  0  0  0  0  0  0  0
    4.8734    8.1448    1.2255 H   0  0  0  0  0  0  0  0  0  0  0  0
    6.0799    6.7175   -1.1970 H   0  0  0  0  0  0  0  0  0  0  0  0
    6.9943    7.5572    0.0631 H   0  0  0  0  0  0  0  0  0  0  0  0
    6.1827    5.9686    1.7668 H   0  0  0  0  0  0  0  0  0  0  0  0
    6.9148    5.0559    0.4321 H   0  0  0  0  0  0  0  0  0  0  0  0
   -1.4171   -1.7413   -2.3525 H   0  0  0  0  0  0  0  0  0  0  0  0
   -1.7461    0.4994   -3.2443 H   0  0  0  0  0  0  0  0  0  0  0  0
    1.8591    1.8462   -1.3298 H   0  0  0  0  0  0  0  0  0  0  0  0
  1  2  1  0  0  0  0
  2  3  1  0  0  0  0
  2  5  1  0  0  0  0
  3  4  1  0  0  0  0
  5  6  2  0  0  0  0
  5 10  1  0  0  0  0
  6  7  1  0  0  0  0
  7  8  2  0  0  0  0
  8  9  1  0  0  0  0
  9 10  2  0  0  0  0
 10 11  1  0  0  0  0
 11 12  1  0  0  0  0
 11 15  2  0  0  0  0
 12 13  1  0  0  0  0
 12 68  1  0  0  0  0
 13 14  1  0  0  0  0
 15 16  1  0  0  0  0
 15 67  1  0  0  0  0
 16 17  1  0  0  0  0
 17 18  1  0  0  0  0
 17 19  1  0  0  0  0
 17 20  1  0  0  0  0
 20 21  1  0  0  0  0
 21 22  1  0  0  0  0
 22 23  1  0  0  0  0
 22 66  2  0  0  0  0
 23 24  1  0  0  0  0
 23 65  1  0  0  0  0
 24 25  1  0  0  0  0
 25 26  1  0  0  0  0
 25 63  1  0  0  0  0
 26 27  1  0  0  0  0
 26 62  2  0  0  0  0
 27 28  1  0  0  0  0
 27 55  1  0  0  0  0
 28 29  1  0  0  0  0
 29 30  1  0  0  0  0
 29 54  2  0  0  0  0
 30 31  1  0  0  0  0
 30 34  1  0  0  0  0
 31 32  1  0  0  0  0
 31 33  1  0  0  0  0
 34 35  1  0  0  0  0
 34 53  1  0  0  0  0
 35 36  1  0  0  0  0
 35 52  2  0  0  0  0
 36 37  1  0  0  0  0
 36 51  1  0  0  0  0
 36 73  1  0  0  0  0
 37 38  1  0  0  0  0
 38 39  1  0  0  0  0
 39 40  1  0  0  0  0
 39 50  1  0  0  0  0
 40 41  1  0  0  0  0
 40 49  2  0  0  0  0
 42 43  1  0  0  0  0
 43 44  1  0  0  0  0
 43 47  1  0  0  0  0
 43 48  1  0  0  0  0
 44 45  1  0  0  0  0
 44 46  1  0  0  0  0
 50 51  1  0  0  0  0
 55 56  1  0  0  0  0
 56 57  1  0  0  0  0
 56 61  1  0  0  0  0
 57 58  1  0  0  0  0
 58 59  1  0  0  0  0
 58 71  1  0  0  0  0
 59 60  1  0  0  0  0
 60 61  1  0  0  0  0
 63 64  1  0  0  0  0
 64 65  1  0  0  0  0
 67 68  2  0  0  0  0
 67 72  1  0  0  0  0
 68 69  1  0  0  0  0
 69 70  2  0  0  0  0
 70 71  1  0  0  0  0
 71 72  2  0  0  0  0
 41 42  3  0  0  0  0
  1 74  1  0  0  0  0
  1 75  1  0  0  0  0
  1 76  1  0  0  0  0
  2 77  1  0  0  0  0
  4 78  1  0  0  0  0
  4 79  1  0  0  0  0
  4 80  1  0  0  0  0
  7 81  1  0  0  0  0
  8 82  1  0  0  0  0
  9 83  1  0  0  0  0
 13 84  1  0  0  0  0
 13 85  1  0  0  0  0
 14 86  1  0  0  0  0
 14 87  1  0  0  0  0
 14 88  1  0  0  0  0
 16 89  1  0  0  0  0
 16 90  1  0  0  0  0
 18 91  1  0  0  0  0
 18 92  1  0  0  0  0
 18 93  1  0  0  0  0
 19 94  1  0  0  0  0
 19 95  1  0  0  0  0
 19 96  1  0  0  0  0
 20 97  1  0  0  0  0
 20 98  1  0  0  0  0
 23 99  1  0  0  0  0
 24100  1  0  0  0  0
 27101  1  0  0  0  0
 28102  1  0  0  0  0
 30103  1  0  0  0  0
 31104  1  0  0  0  0
 32105  1  0  0  0  0
 32106  1  0  0  0  0
 32107  1  0  0  0  0
 33108  1  0  0  0  0
 33109  1  0  0  0  0
 33110  1  0  0  0  0
 37111  1  0  0  0  0
 37112  1  0  0  0  0
 38113  1  0  0  0  0
 38114  1  0  0  0  0
 45115  1  0  0  0  0
 45116  1  0  0  0  0
 45117  1  0  0  0  0
 46118  1  0  0  0  0
 46119  1  0  0  0  0
 46120  1  0  0  0  0
 47121  1  0  0  0  0
 47122  1  0  0  0  0
 47123  1  0  0  0  0
 48124  1  0  0  0  0
 48125  1  0  0  0  0
 48126  1  0  0  0  0
 50127  1  0  0  0  0
 50128  1  0  0  0  0
 51129  1  0  0  0  0
 51130  1  0  0  0  0
 53131  1  0  0  0  0
 53132  1  0  0  0  0
 53133  1  0  0  0  0
 55134  1  0  0  0  0
 55135  1  0  0  0  0
 56136  1  0  0  0  0
 57137  1  0  0  0  0
 57138  1  0  0  0  0
 59139  1  0  0  0  0
 59140  1  0  0  0  0
 60141  1  0  0  0  0
 60142  1  0  0  0  0
 63143  1  0  0  0  0
 63144  1  0  0  0  0
 64145  1  0  0  0  0
 64146  1  0  0  0  0
 65147  1  0  0  0  0
 65148  1  0  0  0  0
 69149  1  0  0  0  0
 70150  1  0  0  0  0
 72151  1  0  0  0  0
M  END
$$$$
