mol_ETKDG3_16
     RDKit          3D

151157  0  0  0  0  0  0  0  0999 V2000
    2.2479    6.8896   -8.8874 C   0  0  0  0  0  0  0  0  0  0  0  0
    2.1185    5.4668   -8.3336 C   0  0  2  0  0  0  0  0  0  0  0  0
    3.3184    4.7318   -8.6185 O   0  0  0  0  0  0  0  0  0  0  0  0
    4.3338    4.9271   -7.6444 C   0  0  0  0  0  0  0  0  0  0  0  0
    0.9273    4.7236   -8.9347 C   0  0  0  0  0  0  0  0  0  0  0  0
    0.5470    5.0851  -10.1972 N   0  0  0  0  0  0  0  0  0  0  0  0
   -0.5045    4.4502  -10.7569 C   0  0  0  0  0  0  0  0  0  0  0  0
   -1.2300    3.4640  -10.1191 C   0  0  0  0  0  0  0  0  0  0  0  0
   -0.8446    3.0991   -8.8348 C   0  0  0  0  0  0  0  0  0  0  0  0
    0.2541    3.7156   -8.2217 C   0  0  0  0  0  0  0  0  0  0  0  0
    0.6244    3.3079   -6.8615 C   0  0  0  0  0  0  0  0  0  0  0  0
    0.0053    3.8053   -5.7328 N   0  0  0  0  0  0  0  0  0  0  0  0
   -1.0819    4.7780   -5.7151 C   0  0  0  0  0  0  0  0  0  0  0  0
   -2.4432    4.1258   -5.5452 C   0  0  0  0  0  0  0  0  0  0  0  0
    1.6170    2.4206   -6.4407 C   0  0  0  0  0  0  0  0  0  0  0  0
    2.5447    1.6448   -7.3492 C   0  0  0  0  0  0  0  0  0  0  0  0
    2.1620    0.1694   -7.6712 C   0  0  0  0  0  0  0  0  0  0  0  0
    0.6988    0.0188   -8.1190 C   0  0  0  0  0  0  0  0  0  0  0  0
    3.0606   -0.2944   -8.8444 C   0  0  0  0  0  0  0  0  0  0  0  0
    2.4063   -0.7643   -6.4675 C   0  0  0  0  0  0  0  0  0  0  0  0
    3.7959   -0.7169   -6.1085 O   0  0  0  0  0  0  0  0  0  0  0  0
    4.1444   -1.4977   -5.0496 C   0  0  0  0  0  0  0  0  0  0  0  0
    5.6218   -1.2762   -4.7184 C   0  0  1  0  0  0  0  0  0  0  0  0
    6.0212   -2.1688   -3.6212 N   0  0  0  0  0  0  0  0  0  0  0  0
    7.3248   -1.8663   -3.1810 N   0  0  0  0  0  0  0  0  0  0  0  0
    7.6763   -1.6603   -1.8432 C   0  0  0  0  0  0  0  0  0  0  0  0
    6.5521   -1.2745   -0.8467 C   0  0  1  0  0  0  0  0  0  0  0  0
    6.8460   -1.9067    0.4342 N   0  0  0  0  0  0  0  0  0  0  0  0
    6.6862   -3.2672    0.5900 C   0  0  0  0  0  0  0  0  0  0  0  0
    7.1349   -3.8119    1.9671 C   0  0  2  0  0  0  0  0  0  0  0  0
    7.7222   -5.2430    1.8484 C   0  0  0  0  0  0  0  0  0  0  0  0
    7.9687   -5.8722    3.2231 C   0  0  0  0  0  0  0  0  0  0  0  0
    9.0473   -5.2117    1.0718 C   0  0  0  0  0  0  0  0  0  0  0  0
    5.9717   -3.6984    2.8837 N   0  0  0  0  0  0  0  0  0  0  0  0
    5.8549   -2.4897    3.5868 C   0  0  0  0  0  0  0  0  0  0  0  0
    4.6364   -2.2850    4.5169 C   0  0  0  0  0  0  0  0  0  0  0  0
    4.7905   -3.1631    5.7713 C   0  0  0  0  0  0  0  0  0  0  0  0
    3.6533   -2.8986    6.7533 C   0  0  0  0  0  0  0  0  0  0  0  0
    3.5973   -1.4797    7.0661 N   0  0  0  0  0  0  0  0  0  0  0  0
    4.0396   -1.0452    8.3092 C   0  0  0  0  0  0  0  0  0  0  0  0
    4.1966    0.3750    8.5283 C   0  0  0  0  0  0  0  0  0  0  0  0
    4.3784    1.5530    8.6907 C   0  0  0  0  0  0  0  0  0  0  0  0
    4.6532    2.9983    8.8630 C   0  0  0  0  0  0  0  0  0  0  0  0
    5.9965    3.3784    8.3387 N   0  0  0  0  0  0  0  0  0  0  0  0
    6.1641    3.1743    6.8953 C   0  0  0  0  0  0  0  0  0  0  0  0
    7.1166    2.7474    9.0468 C   0  0  0  0  0  0  0  0  0  0  0  0
    4.5311    3.3518   10.3633 C   0  0  0  0  0  0  0  0  0  0  0  0
    3.5487    3.7975    8.1315 C   0  0  0  0  0  0  0  0  0  0  0  0
    4.3282   -1.7995    9.2314 O   0  0  0  0  0  0  0  0  0  0  0  0
    3.3764   -0.6111    5.9139 C   0  0  0  0  0  0  0  0  0  0  0  0
    4.5024   -0.8014    4.9018 C   0  0  0  0  0  0  0  0  0  0  0  0
    6.7469   -1.6343    3.5277 O   0  0  0  0  0  0  0  0  0  0  0  0
    4.7915   -4.5033    2.5639 C   0  0  0  0  0  0  0  0  0  0  0  0
    6.1476   -3.9699   -0.2650 O   0  0  0  0  0  0  0  0  0  0  0  0
    6.5181    0.2611   -0.7403 C   0  0  0  0  0  0  0  0  0  0  0  0
    5.1195    0.8646   -0.5432 C   0  0  1  0  0  0  0  0  0  0  0  0
    4.3230    0.9663   -1.8735 C   0  0  0  0  0  0  0  0  0  0  0  0
    3.0000    1.5525   -1.5935 N   0  0  0  0  0  0  0  0  0  0  0  0
    2.2627    0.7666   -0.5742 C   0  0  0  0  0  0  0  0  0  0  0  0
    3.1149    0.6702    0.7019 C   0  0  0  0  0  0  0  0  0  0  0  0
    4.4049    0.0967    0.4422 O   0  0  0  0  0  0  0  0  0  0  0  0
    8.8560   -1.6741   -1.4700 O   0  0  0  0  0  0  0  0  0  0  0  0
    8.3519   -2.1502   -4.1881 C   0  0  0  0  0  0  0  0  0  0  0  0
    8.0267   -1.4150   -5.4938 C   0  0  0  0  0  0  0  0  0  0  0  0
    6.5519   -1.5716   -5.9018 C   0  0  0  0  0  0  0  0  0  0  0  0
    3.3687   -2.1894   -4.4005 O   0  0  0  0  0  0  0  0  0  0  0  0
    1.6437    2.4681   -5.0003 C   0  0  0  0  0  0  0  0  0  0  0  0
    0.6100    3.3104   -4.5945 C   0  0  0  0  0  0  0  0  0  0  0  0
    0.3422    3.5544   -3.2426 C   0  0  0  0  0  0  0  0  0  0  0  0
    1.1573    2.9413   -2.2872 C   0  0  0  0  0  0  0  0  0  0  0  0
    2.2196    2.0916   -2.6217 C   0  0  0  0  0  0  0  0  0  0  0  0
    2.4615    1.8805   -3.9932 C   0  0  0  0  0  0  0  0  0  0  0  0
    3.4596   -2.6308    3.8996 F   0  0  0  0  0  0  0  0  0  0  0  0
    1.3233    7.4594   -8.7450 H   0  0  0  0  0  0  0  0  0  0  0  0
    3.0603    7.4318   -8.3914 H   0  0  0  0  0  0  0  0  0  0  0  0
    2.4933    6.8827   -9.9560 H   0  0  0  0  0  0  0  0  0  0  0  0
    1.9712    5.5519   -7.2507 H   0  0  0  0  0  0  0  0  0  0  0  0
    3.9915    4.5980   -6.6590 H   0  0  0  0  0  0  0  0  0  0  0  0
    5.2016    4.3249   -7.9270 H   0  0  0  0  0  0  0  0  0  0  0  0
    4.6421    5.9750   -7.6046 H   0  0  0  0  0  0  0  0  0  0  0  0
   -0.7546    4.7696  -11.7642 H   0  0  0  0  0  0  0  0  0  0  0  0
   -2.0678    2.9857  -10.6102 H   0  0  0  0  0  0  0  0  0  0  0  0
   -1.3963    2.3195   -8.3134 H   0  0  0  0  0  0  0  0  0  0  0  0
   -0.8871    5.4839   -4.8998 H   0  0  0  0  0  0  0  0  0  0  0  0
   -1.0502    5.3602   -6.6403 H   0  0  0  0  0  0  0  0  0  0  0  0
   -2.5060    3.5741   -4.6023 H   0  0  0  0  0  0  0  0  0  0  0  0
   -3.2289    4.8881   -5.5435 H   0  0  0  0  0  0  0  0  0  0  0  0
   -2.6544    3.4216   -6.3561 H   0  0  0  0  0  0  0  0  0  0  0  0
    2.6196    2.1884   -8.2986 H   0  0  0  0  0  0  0  0  0  0  0  0
    3.5563    1.6857   -6.9247 H   0  0  0  0  0  0  0  0  0  0  0  0
   -0.0028    0.3253   -7.3386 H   0  0  0  0  0  0  0  0  0  0  0  0
    0.5021    0.6085   -9.0182 H   0  0  0  0  0  0  0  0  0  0  0  0
    0.4709   -1.0251   -8.3633 H   0  0  0  0  0  0  0  0  0  0  0  0
    4.1238   -0.1706   -8.6138 H   0  0  0  0  0  0  0  0  0  0  0  0
    2.8891   -1.3517   -9.0786 H   0  0  0  0  0  0  0  0  0  0  0  0
    2.8519    0.2838   -9.7523 H   0  0  0  0  0  0  0  0  0  0  0  0
    1.7877   -0.4712   -5.6110 H   0  0  0  0  0  0  0  0  0  0  0  0
    2.1522   -1.7993   -6.7370 H   0  0  0  0  0  0  0  0  0  0  0  0
    5.7191   -0.2308   -4.3954 H   0  0  0  0  0  0  0  0  0  0  0  0
    5.3038   -2.2641   -2.9017 H   0  0  0  0  0  0  0  0  0  0  0  0
    5.5858   -1.6613   -1.1657 H   0  0  0  0  0  0  0  0  0  0  0  0
    7.3773   -1.4009    1.1382 H   0  0  0  0  0  0  0  0  0  0  0  0
    7.9424   -3.1699    2.3381 H   0  0  0  0  0  0  0  0  0  0  0  0
    7.0371   -5.8929    1.2920 H   0  0  0  0  0  0  0  0  0  0  0  0
    7.0330   -6.0224    3.7675 H   0  0  0  0  0  0  0  0  0  0  0  0
    8.4439   -6.8540    3.1198 H   0  0  0  0  0  0  0  0  0  0  0  0
    8.6240   -5.2452    3.8357 H   0  0  0  0  0  0  0  0  0  0  0  0
    9.4622   -6.2206    0.9733 H   0  0  0  0  0  0  0  0  0  0  0  0
    8.9118   -4.8100    0.0633 H   0  0  0  0  0  0  0  0  0  0  0  0
    9.7931   -4.5958    1.5863 H   0  0  0  0  0  0  0  0  0  0  0  0
    4.7918   -4.2273    5.5146 H   0  0  0  0  0  0  0  0  0  0  0  0
    5.7548   -2.9511    6.2535 H   0  0  0  0  0  0  0  0  0  0  0  0
    2.6892   -3.1894    6.3164 H   0  0  0  0  0  0  0  0  0  0  0  0
    3.7971   -3.4994    7.6569 H   0  0  0  0  0  0  0  0  0  0  0  0
    7.1543    3.5191    6.5729 H   0  0  0  0  0  0  0  0  0  0  0  0
    6.0674    2.1223    6.6049 H   0  0  0  0  0  0  0  0  0  0  0  0
    5.4501    3.7672    6.3167 H   0  0  0  0  0  0  0  0  0  0  0  0
    7.1321    3.0171   10.1075 H   0  0  0  0  0  0  0  0  0  0  0  0
    7.1077    1.6544    8.9602 H   0  0  0  0  0  0  0  0  0  0  0  0
    8.0734    3.1044    8.6459 H   0  0  0  0  0  0  0  0  0  0  0  0
    5.1645    2.7186   10.9950 H   0  0  0  0  0  0  0  0  0  0  0  0
    4.7960    4.4000   10.5452 H   0  0  0  0  0  0  0  0  0  0  0  0
    3.5035    3.2051   10.7217 H   0  0  0  0  0  0  0  0  0  0  0  0
    2.5766    3.6776    8.6266 H   0  0  0  0  0  0  0  0  0  0  0  0
    3.7774    4.8706    8.1190 H   0  0  0  0  0  0  0  0  0  0  0  0
    3.4047    3.4643    7.0963 H   0  0  0  0  0  0  0  0  0  0  0  0
    2.4120   -0.8875    5.4700 H   0  0  0  0  0  0  0  0  0  0  0  0
    3.3049    0.4401    6.2046 H   0  0  0  0  0  0  0  0  0  0  0  0
    5.4402   -0.4258    5.3319 H   0  0  0  0  0  0  0  0  0  0  0  0
    4.2868   -0.2014    4.0092 H   0  0  0  0  0  0  0  0  0  0  0  0
    4.2084   -4.7107    3.4616 H   0  0  0  0  0  0  0  0  0  0  0  0
    4.1678   -3.9561    1.8494 H   0  0  0  0  0  0  0  0  0  0  0  0
    5.0795   -5.4683    2.1382 H   0  0  0  0  0  0  0  0  0  0  0  0
    7.1371    0.5676    0.1143 H   0  0  0  0  0  0  0  0  0  0  0  0
    6.9750    0.7290   -1.6213 H   0  0  0  0  0  0  0  0  0  0  0  0
    5.2511    1.8804   -0.1453 H   0  0  0  0  0  0  0  0  0  0  0  0
    4.8860    1.5933   -2.5747 H   0  0  0  0  0  0  0  0  0  0  0  0
    4.1884   -0.0285   -2.3121 H   0  0  0  0  0  0  0  0  0  0  0  0
    1.2972    1.2079   -0.3094 H   0  0  0  0  0  0  0  0  0  0  0  0
    2.0770   -0.2395   -0.9706 H   0  0  0  0  0  0  0  0  0  0  0  0
    3.2530    1.6601    1.1551 H   0  0  0  0  0  0  0  0  0  0  0  0
    2.6126    0.0333    1.4366 H   0  0  0  0  0  0  0  0  0  0  0  0
    9.3415   -1.8508   -3.8289 H   0  0  0  0  0  0  0  0  0  0  0  0
    8.3705   -3.2350   -4.3487 H   0  0  0  0  0  0  0  0  0  0  0  0
    8.2327   -0.3464   -5.3559 H   0  0  0  0  0  0  0  0  0  0  0  0
    8.6807   -1.7679   -6.2991 H   0  0  0  0  0  0  0  0  0  0  0  0
    6.3821   -2.5931   -6.2707 H   0  0  0  0  0  0  0  0  0  0  0  0
    6.3351   -0.8992   -6.7412 H   0  0  0  0  0  0  0  0  0  0  0  0
   -0.4583    4.2127   -2.9265 H   0  0  0  0  0  0  0  0  0  0  0  0
    0.9663    3.1769   -1.2425 H   0  0  0  0  0  0  0  0  0  0  0  0
    3.2802    1.2495   -4.3121 H   0  0  0  0  0  0  0  0  0  0  0  0
  1  2  1  0
  2  3  1  0
  2  5  1  0
  3  4  1  0
  5  6  2  0
  5 10  1  0
  6  7  1  0
  7  8  2  0
  8  9  1  0
  9 10  2  0
 10 11  1  0
 11 12  1  0
 11 15  2  0
 12 13  1  0
 12 68  1  0
 13 14  1  0
 15 16  1  0
 15 67  1  0
 16 17  1  0
 17 18  1  0
 17 19  1  0
 17 20  1  0
 20 21  1  0
 21 22  1  0
 22 23  1  0
 22 66  2  0
 23 24  1  0
 23 65  1  0
 24 25  1  0
 25 26  1  0
 25 63  1  0
 26 27  1  0
 26 62  2  0
 27 28  1  0
 27 55  1  0
 28 29  1  0
 29 30  1  0
 29 54  2  0
 30 31  1  0
 30 34  1  0
 31 32  1  0
 31 33  1  0
 34 35  1  0
 34 53  1  0
 35 36  1  0
 35 52  2  0
 36 37  1  0
 36 51  1  0
 36 73  1  0
 37 38  1  0
 38 39  1  0
 39 40  1  0
 39 50  1  0
 40 41  1  0
 40 49  2  0
 42 43  1  0
 43 44  1  0
 43 47  1  0
 43 48  1  0
 44 45  1  0
 44 46  1  0
 50 51  1  0
 55 56  1  0
 56 57  1  0
 56 61  1  0
 57 58  1  0
 58 59  1  0
 58 71  1  0
 59 60  1  0
 60 61  1  0
 63 64  1  0
 64 65  1  0
 67 68  2  0
 67 72  1  0
 68 69  1  0
 69 70  2  0
 70 71  1  0
 71 72  2  0
  1 74  1  0
  1 75  1  0
  1 76  1  0
  2 77  1  1
  4 78  1  0
  4 79  1  0
  4 80  1  0
  7 81  1  0
  8 82  1  0
  9 83  1  0
 13 84  1  0
 13 85  1  0
 14 86  1  0
 14 87  1  0
 14 88  1  0
 16 89  1  0
 16 90  1  0
 18 91  1  0
 18 92  1  0
 18 93  1  0
 19 94  1  0
 19 95  1  0
 19 96  1  0
 20 97  1  0
 20 98  1  0
 23 99  1  1
 24100  1  0
 27101  1  6
 28102  1  0
 30103  1  1
 31104  1  0
 32105  1  0
 32106  1  0
 32107  1  0
 33108  1  0
 33109  1  0
 33110  1  0
 37111  1  0
 37112  1  0
 38113  1  0
 38114  1  0
 45115  1  0
 45116  1  0
 45117  1  0
 46118  1  0
 46119  1  0
 46120  1  0
 47121  1  0
 47122  1  0
 47123  1  0
 48124  1  0
 48125  1  0
 48126  1  0
 50127  1  0
 50128  1  0
 51129  1  0
 51130  1  0
 53131  1  0
 53132  1  0
 53133  1  0
 55134  1  0
 55135  1  0
 56136  1  1
 57137  1  0
 57138  1  0
 59139  1  0
 59140  1  0
 60141  1  0
 60142  1  0
 63143  1  0
 63144  1  0
 64145  1  0
 64146  1  0
 65147  1  0
 65148  1  0
 69149  1  0
 70150  1  0
 72151  1  0
 41 42  3  0
M  END
$$$$
