mol_bioactive_15
     RDKit          3D

151157  0  0  0  0  0  0  0  0999 V2000
    1.2830   -2.3092   -8.6914 C   0  0  0  0  0  0  0  0  0  0  0  0
    2.1678   -1.8199   -7.5394 C   0  0  2  0  0  0  0  0  0  0  0  0
    3.5429   -1.7538   -7.9592 O   0  0  0  0  0  0  0  0  0  0  0  0
    3.8162   -0.6978   -8.8685 C   0  0  0  0  0  0  0  0  0  0  0  0
    2.0618   -2.7792   -6.3578 C   0  0  0  0  0  0  0  0  0  0  0  0
    2.3533   -4.0877   -6.6394 N   0  0  0  0  0  0  0  0  0  0  0  0
    2.2931   -4.9896   -5.6396 C   0  0  0  0  0  0  0  0  0  0  0  0
    1.9372   -4.6722   -4.3469 C   0  0  0  0  0  0  0  0  0  0  0  0
    1.6260   -3.3471   -4.0644 C   0  0  0  0  0  0  0  0  0  0  0  0
    1.6857   -2.3654   -5.0677 C   0  0  0  0  0  0  0  0  0  0  0  0
    1.3236   -0.9915   -4.6798 C   0  0  0  0  0  0  0  0  0  0  0  0
    0.0789   -0.4223   -4.9355 N   0  0  0  0  0  0  0  0  0  0  0  0
   -1.0114   -1.0346   -5.6863 C   0  0  0  0  0  0  0  0  0  0  0  0
   -1.3129   -0.3256   -7.0005 C   0  0  0  0  0  0  0  0  0  0  0  0
    2.0184   -0.1123   -3.8422 C   0  0  0  0  0  0  0  0  0  0  0  0
    3.3662   -0.3155   -3.1718 C   0  0  0  0  0  0  0  0  0  0  0  0
    4.6335    0.2086   -3.9054 C   0  0  0  0  0  0  0  0  0  0  0  0
    4.7385   -0.4176   -5.3052 C   0  0  0  0  0  0  0  0  0  0  0  0
    5.8636   -0.2536   -3.0929 C   0  0  0  0  0  0  0  0  0  0  0  0
    4.6529    1.7506   -4.0706 C   0  0  0  0  0  0  0  0  0  0  0  0
    4.9746    2.4628   -2.8537 O   0  0  0  0  0  0  0  0  0  0  0  0
    6.2129    3.0575   -2.8342 C   0  0  0  0  0  0  0  0  0  0  0  0
    6.3708    3.9885   -1.6234 C   0  0  1  0  0  0  0  0  0  0  0  0
    5.9768    3.3113   -0.3753 N   0  0  0  0  0  0  0  0  0  0  0  0
    6.1025    4.1853    0.7399 N   0  0  0  0  0  0  0  0  0  0  0  0
    5.0559    4.6264    1.5597 C   0  0  0  0  0  0  0  0  0  0  0  0
    3.6153    4.4282    1.0537 C   0  0  1  0  0  0  0  0  0  0  0  0
    2.7474    4.0069    2.1411 N   0  0  0  0  0  0  0  0  0  0  0  0
    2.5443    2.6696    2.4061 C   0  0  0  0  0  0  0  0  0  0  0  0
    1.6022    2.3719    3.6022 C   0  0  2  0  0  0  0  0  0  0  0  0
    2.3910    2.1213    4.9137 C   0  0  0  0  0  0  0  0  0  0  0  0
    1.4300    1.9499    6.0992 C   0  0  0  0  0  0  0  0  0  0  0  0
    3.3584    3.2675    5.2399 C   0  0  0  0  0  0  0  0  0  0  0  0
    0.6888    1.2669    3.1874 N   0  0  0  0  0  0  0  0  0  0  0  0
   -0.4416    1.6497    2.4577 C   0  0  0  0  0  0  0  0  0  0  0  0
   -1.2825    0.5930    1.6971 C   0  0  0  0  0  0  0  0  0  0  0  0
   -0.5281    0.1019    0.4556 C   0  0  0  0  0  0  0  0  0  0  0  0
   -1.3880   -0.8330   -0.3862 C   0  0  0  0  0  0  0  0  0  0  0  0
   -2.6752   -0.2336   -0.7022 N   0  0  0  0  0  0  0  0  0  0  0  0
   -3.2689   -0.5568   -1.9182 C   0  0  0  0  0  0  0  0  0  0  0  0
   -4.5095    0.1036   -2.2706 C   0  0  0  0  0  0  0  0  0  0  0  0
   -5.5081    0.6925   -2.5895 C   0  0  0  0  0  0  0  0  0  0  0  0
   -6.7142    1.4518   -2.9987 C   0  0  0  0  0  0  0  0  0  0  0  0
   -6.8145    1.6001   -4.4773 N   0  0  0  0  0  0  0  0  0  0  0  0
   -5.7019    2.3373   -5.0877 C   0  0  0  0  0  0  0  0  0  0  0  0
   -7.0067    0.3355   -5.1968 C   0  0  0  0  0  0  0  0  0  0  0  0
   -7.9630    0.7346   -2.4325 C   0  0  0  0  0  0  0  0  0  0  0  0
   -6.6696    2.8437   -2.3223 C   0  0  0  0  0  0  0  0  0  0  0  0
   -2.7900   -1.3361   -2.7334 O   0  0  0  0  0  0  0  0  0  0  0  0
   -3.4444    0.2571    0.4352 C   0  0  0  0  0  0  0  0  0  0  0  0
   -2.6255    1.2133    1.2847 C   0  0  0  0  0  0  0  0  0  0  0  0
   -0.7501    2.8458    2.3724 O   0  0  0  0  0  0  0  0  0  0  0  0
    1.1838   -0.1078    3.2707 C   0  0  0  0  0  0  0  0  0  0  0  0
    3.0777    1.7905    1.7285 O   0  0  0  0  0  0  0  0  0  0  0  0
    3.1309    5.7367    0.3964 C   0  0  0  0  0  0  0  0  0  0  0  0
    1.7610    5.6461   -0.3051 C   0  0  1  0  0  0  0  0  0  0  0  0
    1.6604    4.3898   -1.1860 C   0  0  0  0  0  0  0  0  0  0  0  0
    0.3366    4.2444   -1.8256 N   0  0  0  0  0  0  0  0  0  0  0  0
   -0.7488    4.3484   -0.8131 C   0  0  0  0  0  0  0  0  0  0  0  0
   -0.5672    5.6052    0.0591 C   0  0  0  0  0  0  0  0  0  0  0  0
    0.7248    5.6571    0.6901 O   0  0  0  0  0  0  0  0  0  0  0  0
    5.2581    5.2377    2.6159 O   0  0  0  0  0  0  0  0  0  0  0  0
    7.4846    4.5764    1.0231 C   0  0  0  0  0  0  0  0  0  0  0  0
    8.0618    5.2752   -0.2094 C   0  0  0  0  0  0  0  0  0  0  0  0
    7.8382    4.4405   -1.4776 C   0  0  0  0  0  0  0  0  0  0  0  0
    7.0578    2.9342   -3.7139 O   0  0  0  0  0  0  0  0  0  0  0  0
    1.1471    0.9965   -3.5933 C   0  0  0  0  0  0  0  0  0  0  0  0
   -0.0485    0.7802   -4.2628 C   0  0  0  0  0  0  0  0  0  0  0  0
   -1.1165    1.6865   -4.1578 C   0  0  0  0  0  0  0  0  0  0  0  0
   -0.9545    2.8310   -3.3585 C   0  0  0  0  0  0  0  0  0  0  0  0
    0.2188    3.0848   -2.6422 C   0  0  0  0  0  0  0  0  0  0  0  0
    1.2654    2.1530   -2.7936 C   0  0  0  0  0  0  0  0  0  0  0  0
   -1.5810   -0.4866    2.4870 F   0  0  0  0  0  0  0  0  0  0  0  0
    0.2681   -2.5409   -8.3530 H   0  0  0  0  0  0  0  0  0  0  0  0
    1.2082   -1.5482   -9.4748 H   0  0  0  0  0  0  0  0  0  0  0  0
    1.7032   -3.2046   -9.1637 H   0  0  0  0  0  0  0  0  0  0  0  0
    1.8499   -0.8169   -7.2403 H   0  0  0  0  0  0  0  0  0  0  0  0
    3.4672    0.2609   -8.4738 H   0  0  0  0  0  0  0  0  0  0  0  0
    4.8995   -0.6414   -9.0074 H   0  0  0  0  0  0  0  0  0  0  0  0
    3.3613   -0.8962   -9.8421 H   0  0  0  0  0  0  0  0  0  0  0  0
    2.5483   -6.0072   -5.9199 H   0  0  0  0  0  0  0  0  0  0  0  0
    1.8986   -5.4340   -3.5767 H   0  0  0  0  0  0  0  0  0  0  0  0
    1.3299   -3.0752   -3.0536 H   0  0  0  0  0  0  0  0  0  0  0  0
   -0.7699   -2.0838   -5.8786 H   0  0  0  0  0  0  0  0  0  0  0  0
   -1.8972   -1.0255   -5.0465 H   0  0  0  0  0  0  0  0  0  0  0  0
   -1.6825    0.6907   -6.8381 H   0  0  0  0  0  0  0  0  0  0  0  0
   -0.4242   -0.2483   -7.6300 H   0  0  0  0  0  0  0  0  0  0  0  0
   -2.0827   -0.8712   -7.5536 H   0  0  0  0  0  0  0  0  0  0  0  0
    3.3253    0.1372   -2.1716 H   0  0  0  0  0  0  0  0  0  0  0  0
    3.4868   -1.3899   -2.9819 H   0  0  0  0  0  0  0  0  0  0  0  0
    4.6664   -1.5094   -5.2616 H   0  0  0  0  0  0  0  0  0  0  0  0
    3.9498   -0.0364   -5.9587 H   0  0  0  0  0  0  0  0  0  0  0  0
    5.6963   -0.1746   -5.7799 H   0  0  0  0  0  0  0  0  0  0  0  0
    5.8316    0.1210   -2.0641 H   0  0  0  0  0  0  0  0  0  0  0  0
    5.9127   -1.3475   -3.0400 H   0  0  0  0  0  0  0  0  0  0  0  0
    6.7967    0.0935   -3.5506 H   0  0  0  0  0  0  0  0  0  0  0  0
    5.3405    2.0311   -4.8780 H   0  0  0  0  0  0  0  0  0  0  0  0
    3.6791    2.1189   -4.4053 H   0  0  0  0  0  0  0  0  0  0  0  0
    5.7285    4.8593   -1.8039 H   0  0  0  0  0  0  0  0  0  0  0  0
    5.0843    2.8245   -0.4490 H   0  0  0  0  0  0  0  0  0  0  0  0
    3.6126    3.6341    0.3146 H   0  0  0  0  0  0  0  0  0  0  0  0
    2.3794    4.7154    2.7646 H   0  0  0  0  0  0  0  0  0  0  0  0
    0.9925    3.2708    3.7610 H   0  0  0  0  0  0  0  0  0  0  0  0
    2.9977    1.2133    4.8187 H   0  0  0  0  0  0  0  0  0  0  0  0
    1.9863    1.7509    7.0219 H   0  0  0  0  0  0  0  0  0  0  0  0
    0.8320    2.8551    6.2559 H   0  0  0  0  0  0  0  0  0  0  0  0
    0.7401    1.1151    5.9481 H   0  0  0  0  0  0  0  0  0  0  0  0
    3.8368    3.1083    6.2128 H   0  0  0  0  0  0  0  0  0  0  0  0
    4.1602    3.3332    4.4990 H   0  0  0  0  0  0  0  0  0  0  0  0
    2.8388    4.2308    5.2744 H   0  0  0  0  0  0  0  0  0  0  0  0
   -0.2217    0.9624   -0.1517 H   0  0  0  0  0  0  0  0  0  0  0  0
    0.3880   -0.4303    0.7277 H   0  0  0  0  0  0  0  0  0  0  0  0
   -0.8490   -1.0875   -1.3055 H   0  0  0  0  0  0  0  0  0  0  0  0
   -1.5805   -1.7713    0.1486 H   0  0  0  0  0  0  0  0  0  0  0  0
   -5.6221    3.3558   -4.6964 H   0  0  0  0  0  0  0  0  0  0  0  0
   -4.7380    1.8331   -4.9573 H   0  0  0  0  0  0  0  0  0  0  0  0
   -5.8705    2.4565   -6.1651 H   0  0  0  0  0  0  0  0  0  0  0  0
   -7.9368   -0.1614   -4.9031 H   0  0  0  0  0  0  0  0  0  0  0  0
   -7.1090    0.5206   -6.2731 H   0  0  0  0  0  0  0  0  0  0  0  0
   -6.1733   -0.3617   -5.0561 H   0  0  0  0  0  0  0  0  0  0  0  0
   -7.9649    0.7500   -1.3356 H   0  0  0  0  0  0  0  0  0  0  0  0
   -8.8870    1.2193   -2.7678 H   0  0  0  0  0  0  0  0  0  0  0  0
   -8.0054   -0.3220   -2.7195 H   0  0  0  0  0  0  0  0  0  0  0  0
   -6.7388    2.7555   -1.2308 H   0  0  0  0  0  0  0  0  0  0  0  0
   -5.7341    3.3783   -2.5233 H   0  0  0  0  0  0  0  0  0  0  0  0
   -7.5033    3.4738   -2.6534 H   0  0  0  0  0  0  0  0  0  0  0  0
   -4.3614    0.7580    0.1135 H   0  0  0  0  0  0  0  0  0  0  0  0
   -3.7510   -0.6180    1.0225 H   0  0  0  0  0  0  0  0  0  0  0  0
   -3.2030    1.4800    2.1778 H   0  0  0  0  0  0  0  0  0  0  0  0
   -2.4667    2.1353    0.7137 H   0  0  0  0  0  0  0  0  0  0  0  0
    1.5020   -0.3278    4.2916 H   0  0  0  0  0  0  0  0  0  0  0  0
    0.4272   -0.8450    3.0154 H   0  0  0  0  0  0  0  0  0  0  0  0
    2.0297   -0.2390    2.5924 H   0  0  0  0  0  0  0  0  0  0  0  0
    3.0920    6.5306    1.1541 H   0  0  0  0  0  0  0  0  0  0  0  0
    3.8759    6.0478   -0.3479 H   0  0  0  0  0  0  0  0  0  0  0  0
    1.6348    6.5459   -0.9221 H   0  0  0  0  0  0  0  0  0  0  0  0
    2.4490    4.4449   -1.9458 H   0  0  0  0  0  0  0  0  0  0  0  0
    1.8021    3.5073   -0.5548 H   0  0  0  0  0  0  0  0  0  0  0  0
   -1.7367    4.3997   -1.2810 H   0  0  0  0  0  0  0  0  0  0  0  0
   -0.7135    3.4636   -0.1707 H   0  0  0  0  0  0  0  0  0  0  0  0
   -0.7053    6.5154   -0.5371 H   0  0  0  0  0  0  0  0  0  0  0  0
   -1.3211    5.6140    0.8530 H   0  0  0  0  0  0  0  0  0  0  0  0
    7.5380    5.2433    1.8894 H   0  0  0  0  0  0  0  0  0  0  0  0
    8.0510    3.6678    1.2616 H   0  0  0  0  0  0  0  0  0  0  0  0
    7.5685    6.2466   -0.3368 H   0  0  0  0  0  0  0  0  0  0  0  0
    9.1305    5.4689   -0.0680 H   0  0  0  0  0  0  0  0  0  0  0  0
    8.4996    3.5629   -1.4481 H   0  0  0  0  0  0  0  0  0  0  0  0
    8.1410    5.0262   -2.3545 H   0  0  0  0  0  0  0  0  0  0  0  0
   -2.0585    1.5144   -4.6683 H   0  0  0  0  0  0  0  0  0  0  0  0
   -1.7803    3.5362   -3.3164 H   0  0  0  0  0  0  0  0  0  0  0  0
    2.2063    2.2669   -2.2719 H   0  0  0  0  0  0  0  0  0  0  0  0
  1  2  1  0
  2  3  1  0
  2  5  1  0
  3  4  1  0
  5  6  2  0
  5 10  1  0
  6  7  1  0
  7  8  2  0
  8  9  1  0
  9 10  2  0
 10 11  1  0
 11 12  1  0
 11 15  2  0
 12 13  1  0
 12 68  1  0
 13 14  1  0
 15 16  1  0
 15 67  1  0
 16 17  1  0
 17 18  1  0
 17 19  1  0
 17 20  1  0
 20 21  1  0
 21 22  1  0
 22 23  1  0
 22 66  2  0
 23 24  1  0
 23 65  1  0
 24 25  1  0
 25 26  1  0
 25 63  1  0
 26 27  1  0
 26 62  2  0
 27 28  1  0
 27 55  1  0
 28 29  1  0
 29 30  1  0
 29 54  2  0
 30 31  1  0
 30 34  1  0
 31 32  1  0
 31 33  1  0
 34 35  1  0
 34 53  1  0
 35 36  1  0
 35 52  2  0
 36 37  1  0
 36 51  1  0
 36 73  1  0
 37 38  1  0
 38 39  1  0
 39 40  1  0
 39 50  1  0
 40 41  1  0
 40 49  2  0
 42 43  1  0
 43 44  1  0
 43 47  1  0
 43 48  1  0
 44 45  1  0
 44 46  1  0
 50 51  1  0
 55 56  1  0
 56 57  1  0
 56 61  1  0
 57 58  1  0
 58 59  1  0
 58 71  1  0
 59 60  1  0
 60 61  1  0
 63 64  1  0
 64 65  1  0
 67 68  2  0
 67 72  1  0
 68 69  1  0
 69 70  2  0
 70 71  1  0
 71 72  2  0
 41 42  3  0
  1 74  1  0
  1 75  1  0
  1 76  1  0
  2 77  1  1
  4 78  1  0
  4 79  1  0
  4 80  1  0
  7 81  1  0
  8 82  1  0
  9 83  1  0
 13 84  1  0
 13 85  1  0
 14 86  1  0
 14 87  1  0
 14 88  1  0
 16 89  1  0
 16 90  1  0
 18 91  1  0
 18 92  1  0
 18 93  1  0
 19 94  1  0
 19 95  1  0
 19 96  1  0
 20 97  1  0
 20 98  1  0
 23 99  1  6
 24100  1  0
 27101  1  6
 28102  1  0
 30103  1  1
 31104  1  0
 32105  1  0
 32106  1  0
 32107  1  0
 33108  1  0
 33109  1  0
 33110  1  0
 37111  1  0
 37112  1  0
 38113  1  0
 38114  1  0
 45115  1  0
 45116  1  0
 45117  1  0
 46118  1  0
 46119  1  0
 46120  1  0
 47121  1  0
 47122  1  0
 47123  1  0
 48124  1  0
 48125  1  0
 48126  1  0
 50127  1  0
 50128  1  0
 51129  1  0
 51130  1  0
 53131  1  0
 53132  1  0
 53133  1  0
 55134  1  0
 55135  1  0
 56136  1  6
 57137  1  0
 57138  1  0
 59139  1  0
 59140  1  0
 60141  1  0
 60142  1  0
 63143  1  0
 63144  1  0
 64145  1  0
 64146  1  0
 65147  1  0
 65148  1  0
 69149  1  0
 70150  1  0
 72151  1  0
M  END
$$$$
