mol_bioactive_50
     RDKit          3D

151157  0  0  0  0  0  0  0  0999 V2000
   -2.4295    3.4458   -2.2608 C   0  0  0  0  0  0  0  0  0  0  0  0
   -1.3801    2.4654   -2.7726 C   0  0  2  0  0  0  0  0  0  0  0  0
   -1.3492    1.3173   -1.9163 O   0  0  0  0  0  0  0  0  0  0  0  0
   -1.8845    0.1572   -2.5344 C   0  0  0  0  0  0  0  0  0  0  0  0
   -0.0277    3.1468   -2.9430 C   0  0  0  0  0  0  0  0  0  0  0  0
    0.2264    3.5212   -4.2377 N   0  0  0  0  0  0  0  0  0  0  0  0
    1.3598    4.2023   -4.5042 C   0  0  0  0  0  0  0  0  0  0  0  0
    2.2764    4.5622   -3.5401 C   0  0  0  0  0  0  0  0  0  0  0  0
    2.0178    4.1838   -2.2291 C   0  0  0  0  0  0  0  0  0  0  0  0
    0.8615    3.4574   -1.8993 C   0  0  0  0  0  0  0  0  0  0  0  0
    0.6849    3.0811   -0.4876 C   0  0  0  0  0  0  0  0  0  0  0  0
    0.2574    3.9666    0.4936 N   0  0  0  0  0  0  0  0  0  0  0  0
   -0.1013    5.3649    0.2862 C   0  0  0  0  0  0  0  0  0  0  0  0
    1.0194    6.3192    0.6671 C   0  0  0  0  0  0  0  0  0  0  0  0
    0.9571    1.8642    0.1425 C   0  0  0  0  0  0  0  0  0  0  0  0
    1.4307    0.5766   -0.5003 C   0  0  0  0  0  0  0  0  0  0  0  0
    2.9597    0.2830   -0.5182 C   0  0  0  0  0  0  0  0  0  0  0  0
    3.1683   -0.9630   -1.4109 C   0  0  0  0  0  0  0  0  0  0  0  0
    3.7431    1.4414   -1.1608 C   0  0  0  0  0  0  0  0  0  0  0  0
    3.5480    0.0357    0.8927 C   0  0  0  0  0  0  0  0  0  0  0  0
    3.1742   -1.2314    1.4763 O   0  0  0  0  0  0  0  0  0  0  0  0
    4.1539   -2.1936    1.4560 C   0  0  0  0  0  0  0  0  0  0  0  0
    3.7859   -3.3771    2.3575 C   0  0  1  0  0  0  0  0  0  0  0  0
    2.5160   -3.9993    1.9377 N   0  0  0  0  0  0  0  0  0  0  0  0
    2.1773   -5.0724    2.8123 N   0  0  0  0  0  0  0  0  0  0  0  0
    1.3736   -4.9467    3.9561 C   0  0  0  0  0  0  0  0  0  0  0  0
    0.6714   -3.5987    4.2067 C   0  0  1  0  0  0  0  0  0  0  0  0
   -0.7624   -3.7754    4.0507 N   0  0  0  0  0  0  0  0  0  0  0  0
   -1.3778   -3.6047    2.8287 C   0  0  0  0  0  0  0  0  0  0  0  0
   -2.9046   -3.8792    2.8256 C   0  0  2  0  0  0  0  0  0  0  0  0
   -3.2356   -5.2958    2.2854 C   0  0  0  0  0  0  0  0  0  0  0  0
   -4.7314   -5.5984    2.4505 C   0  0  0  0  0  0  0  0  0  0  0  0
   -2.4349   -6.3929    2.9999 C   0  0  0  0  0  0  0  0  0  0  0  0
   -3.5731   -2.7519    2.1142 N   0  0  0  0  0  0  0  0  0  0  0  0
   -3.8457   -1.6157    2.8819 C   0  0  0  0  0  0  0  0  0  0  0  0
   -4.2935   -0.2939    2.2061 C   0  0  0  0  0  0  0  0  0  0  0  0
   -4.8296    0.6679    3.2804 C   0  0  0  0  0  0  0  0  0  0  0  0
   -5.1474    2.0400    2.7143 C   0  0  0  0  0  0  0  0  0  0  0  0
   -4.0223    2.5777    1.9631 N   0  0  0  0  0  0  0  0  0  0  0  0
   -3.7796    3.9434    1.8815 C   0  0  0  0  0  0  0  0  0  0  0  0
   -4.0622    4.7532    3.0454 C   0  0  0  0  0  0  0  0  0  0  0  0
   -4.1932    5.4365    4.0258 C   0  0  0  0  0  0  0  0  0  0  0  0
   -4.2712    6.2851    5.2438 C   0  0  0  0  0  0  0  0  0  0  0  0
   -5.3129    7.3271    5.0454 N   0  0  0  0  0  0  0  0  0  0  0  0
   -5.6530    8.0888    6.2469 C   0  0  0  0  0  0  0  0  0  0  0  0
   -5.0170    8.2621    3.9533 C   0  0  0  0  0  0  0  0  0  0  0  0
   -2.8636    6.8529    5.5298 C   0  0  0  0  0  0  0  0  0  0  0  0
   -4.6442    5.3299    6.4045 C   0  0  0  0  0  0  0  0  0  0  0  0
   -3.2747    4.5046    0.9164 O   0  0  0  0  0  0  0  0  0  0  0  0
   -3.4958    1.7222    0.9125 C   0  0  0  0  0  0  0  0  0  0  0  0
   -3.1204    0.3515    1.4602 C   0  0  0  0  0  0  0  0  0  0  0  0
   -3.6906   -1.6513    4.1100 O   0  0  0  0  0  0  0  0  0  0  0  0
   -3.6198   -2.7848    0.6531 C   0  0  0  0  0  0  0  0  0  0  0  0
   -0.7437   -3.2666    1.8301 O   0  0  0  0  0  0  0  0  0  0  0  0
    1.0446   -3.0649    5.6035 C   0  0  0  0  0  0  0  0  0  0  0  0
    0.5078   -1.6551    5.9232 C   0  0  1  0  0  0  0  0  0  0  0  0
    0.6000   -0.7056    4.7154 C   0  0  0  0  0  0  0  0  0  0  0  0
    0.0556    0.6367    5.0037 N   0  0  0  0  0  0  0  0  0  0  0  0
   -1.3151    0.5367    5.5774 C   0  0  0  0  0  0  0  0  0  0  0  0
   -1.3569   -0.4727    6.7407 C   0  0  0  0  0  0  0  0  0  0  0  0
   -0.8564   -1.7695    6.3667 O   0  0  0  0  0  0  0  0  0  0  0  0
    1.2035   -5.8860    4.7419 O   0  0  0  0  0  0  0  0  0  0  0  0
    3.1013   -6.2034    2.7054 C   0  0  0  0  0  0  0  0  0  0  0  0
    4.4993   -5.7203    3.1000 C   0  0  0  0  0  0  0  0  0  0  0  0
    4.8862   -4.4610    2.3099 C   0  0  0  0  0  0  0  0  0  0  0  0
    5.2172   -2.0896    0.8567 O   0  0  0  0  0  0  0  0  0  0  0  0
    0.5886    2.0200    1.5180 C   0  0  0  0  0  0  0  0  0  0  0  0
    0.1644    3.3276    1.7157 C   0  0  0  0  0  0  0  0  0  0  0  0
   -0.2583    3.7791    2.9767 C   0  0  0  0  0  0  0  0  0  0  0  0
   -0.2717    2.8675    4.0454 C   0  0  0  0  0  0  0  0  0  0  0  0
    0.1108    1.5307    3.8960 C   0  0  0  0  0  0  0  0  0  0  0  0
    0.5621    1.1365    2.6188 C   0  0  0  0  0  0  0  0  0  0  0  0
   -5.3166   -0.5023    1.3182 F   0  0  0  0  0  0  0  0  0  0  0  0
   -2.1747    3.8114   -1.2645 H   0  0  0  0  0  0  0  0  0  0  0  0
   -2.5281    4.3116   -2.9234 H   0  0  0  0  0  0  0  0  0  0  0  0
   -3.4059    2.9549   -2.1775 H   0  0  0  0  0  0  0  0  0  0  0  0
   -1.7015    2.1511   -3.7762 H   0  0  0  0  0  0  0  0  0  0  0  0
   -1.8370   -0.6669   -1.8170 H   0  0  0  0  0  0  0  0  0  0  0  0
   -2.9312    0.3168   -2.8115 H   0  0  0  0  0  0  0  0  0  0  0  0
   -1.2929   -0.1154   -3.4149 H   0  0  0  0  0  0  0  0  0  0  0  0
    1.5111    4.4633   -5.5474 H   0  0  0  0  0  0  0  0  0  0  0  0
    3.1732    5.1119   -3.7990 H   0  0  0  0  0  0  0  0  0  0  0  0
    2.7355    4.4443   -1.4541 H   0  0  0  0  0  0  0  0  0  0  0  0
   -0.3875    5.5070   -0.7596 H   0  0  0  0  0  0  0  0  0  0  0  0
   -0.9882    5.5772    0.8883 H   0  0  0  0  0  0  0  0  0  0  0  0
    1.2812    6.2244    1.7259 H   0  0  0  0  0  0  0  0  0  0  0  0
    1.9253    6.1291    0.0850 H   0  0  0  0  0  0  0  0  0  0  0  0
    0.7102    7.3533    0.4869 H   0  0  0  0  0  0  0  0  0  0  0  0
    0.9102   -0.2616   -0.0185 H   0  0  0  0  0  0  0  0  0  0  0  0
    1.0746    0.5706   -1.5385 H   0  0  0  0  0  0  0  0  0  0  0  0
    2.6252   -1.8333   -1.0244 H   0  0  0  0  0  0  0  0  0  0  0  0
    2.8072   -0.7829   -2.4312 H   0  0  0  0  0  0  0  0  0  0  0  0
    4.2292   -1.2262   -1.4864 H   0  0  0  0  0  0  0  0  0  0  0  0
    3.6885    2.3488   -0.5524 H   0  0  0  0  0  0  0  0  0  0  0  0
    4.8056    1.1899   -1.2647 H   0  0  0  0  0  0  0  0  0  0  0  0
    3.3680    1.6625   -2.1653 H   0  0  0  0  0  0  0  0  0  0  0  0
    4.6416    0.1351    0.8698 H   0  0  0  0  0  0  0  0  0  0  0  0
    3.2226    0.8137    1.5892 H   0  0  0  0  0  0  0  0  0  0  0  0
    3.7050   -2.9860    3.3798 H   0  0  0  0  0  0  0  0  0  0  0  0
    1.7466   -3.3408    1.7842 H   0  0  0  0  0  0  0  0  0  0  0  0
    1.0094   -2.8740    3.4710 H   0  0  0  0  0  0  0  0  0  0  0  0
   -1.2982   -4.0771    4.8587 H   0  0  0  0  0  0  0  0  0  0  0  0
   -3.2374   -3.8577    3.8717 H   0  0  0  0  0  0  0  0  0  0  0  0
   -2.9810   -5.3600    1.2200 H   0  0  0  0  0  0  0  0  0  0  0  0
   -5.0198   -5.5860    3.5076 H   0  0  0  0  0  0  0  0  0  0  0  0
   -5.3529   -4.8690    1.9250 H   0  0  0  0  0  0  0  0  0  0  0  0
   -4.9742   -6.5874    2.0479 H   0  0  0  0  0  0  0  0  0  0  0  0
   -2.5657   -6.3427    4.0865 H   0  0  0  0  0  0  0  0  0  0  0  0
   -2.7553   -7.3875    2.6675 H   0  0  0  0  0  0  0  0  0  0  0  0
   -1.3657   -6.3128    2.7766 H   0  0  0  0  0  0  0  0  0  0  0  0
   -5.7365    0.2506    3.7326 H   0  0  0  0  0  0  0  0  0  0  0  0
   -4.0958    0.7926    4.0857 H   0  0  0  0  0  0  0  0  0  0  0  0
   -5.9994    1.9852    2.0262 H   0  0  0  0  0  0  0  0  0  0  0  0
   -5.4425    2.7128    3.5253 H   0  0  0  0  0  0  0  0  0  0  0  0
   -6.0340    7.4462    7.0478 H   0  0  0  0  0  0  0  0  0  0  0  0
   -4.8044    8.6637    6.6331 H   0  0  0  0  0  0  0  0  0  0  0  0
   -6.4638    8.7966    6.0347 H   0  0  0  0  0  0  0  0  0  0  0  0
   -5.8835    8.9088    3.7663 H   0  0  0  0  0  0  0  0  0  0  0  0
   -4.1634    8.9111    4.1773 H   0  0  0  0  0  0  0  0  0  0  0  0
   -4.8218    7.7485    3.0065 H   0  0  0  0  0  0  0  0  0  0  0  0
   -2.8483    7.4689    6.4365 H   0  0  0  0  0  0  0  0  0  0  0  0
   -2.1375    6.0430    5.6794 H   0  0  0  0  0  0  0  0  0  0  0  0
   -2.4823    7.4582    4.6987 H   0  0  0  0  0  0  0  0  0  0  0  0
   -4.5798    5.8201    7.3820 H   0  0  0  0  0  0  0  0  0  0  0  0
   -5.6595    4.9319    6.2858 H   0  0  0  0  0  0  0  0  0  0  0  0
   -3.9688    4.4651    6.4386 H   0  0  0  0  0  0  0  0  0  0  0  0
   -4.2562    1.6405    0.1279 H   0  0  0  0  0  0  0  0  0  0  0  0
   -2.6093    2.1831    0.4665 H   0  0  0  0  0  0  0  0  0  0  0  0
   -2.2702    0.4512    2.1439 H   0  0  0  0  0  0  0  0  0  0  0  0
   -2.7797   -0.2663    0.6255 H   0  0  0  0  0  0  0  0  0  0  0  0
   -4.1105   -3.7015    0.3163 H   0  0  0  0  0  0  0  0  0  0  0  0
   -4.1862   -1.9583    0.2293 H   0  0  0  0  0  0  0  0  0  0  0  0
   -2.6039   -2.7495    0.2516 H   0  0  0  0  0  0  0  0  0  0  0  0
    0.6999   -3.7668    6.3736 H   0  0  0  0  0  0  0  0  0  0  0  0
    2.1399   -3.0344    5.6686 H   0  0  0  0  0  0  0  0  0  0  0  0
    1.0926   -1.2539    6.7617 H   0  0  0  0  0  0  0  0  0  0  0  0
    1.6515   -0.6343    4.4111 H   0  0  0  0  0  0  0  0  0  0  0  0
   -0.0040   -1.1234    3.9029 H   0  0  0  0  0  0  0  0  0  0  0  0
   -1.6678    1.5037    5.9515 H   0  0  0  0  0  0  0  0  0  0  0  0
   -1.9987    0.1974    4.7928 H   0  0  0  0  0  0  0  0  0  0  0  0
   -0.7763   -0.1035    7.5957 H   0  0  0  0  0  0  0  0  0  0  0  0
   -2.3906   -0.6035    7.0776 H   0  0  0  0  0  0  0  0  0  0  0  0
    2.7894   -7.0302    3.3504 H   0  0  0  0  0  0  0  0  0  0  0  0
    3.0883   -6.5581    1.6686 H   0  0  0  0  0  0  0  0  0  0  0  0
    4.5138   -5.4831    4.1711 H   0  0  0  0  0  0  0  0  0  0  0  0
    5.2355   -6.5131    2.9316 H   0  0  0  0  0  0  0  0  0  0  0  0
    5.0841   -4.7452    1.2675 H   0  0  0  0  0  0  0  0  0  0  0  0
    5.8262   -4.0580    2.7039 H   0  0  0  0  0  0  0  0  0  0  0  0
   -0.5800    4.8035    3.1324 H   0  0  0  0  0  0  0  0  0  0  0  0
   -0.5831    3.2359    5.0199 H   0  0  0  0  0  0  0  0  0  0  0  0
    0.8764    0.1224    2.4142 H   0  0  0  0  0  0  0  0  0  0  0  0
  1  2  1  0
  2  3  1  0
  2  5  1  0
  3  4  1  0
  5  6  2  0
  5 10  1  0
  6  7  1  0
  7  8  2  0
  8  9  1  0
  9 10  2  0
 10 11  1  0
 11 12  1  0
 11 15  2  0
 12 13  1  0
 12 68  1  0
 13 14  1  0
 15 16  1  0
 15 67  1  0
 16 17  1  0
 17 18  1  0
 17 19  1  0
 17 20  1  0
 20 21  1  0
 21 22  1  0
 22 23  1  0
 22 66  2  0
 23 24  1  0
 23 65  1  0
 24 25  1  0
 25 26  1  0
 25 63  1  0
 26 27  1  0
 26 62  2  0
 27 28  1  0
 27 55  1  0
 28 29  1  0
 29 30  1  0
 29 54  2  0
 30 31  1  0
 30 34  1  0
 31 32  1  0
 31 33  1  0
 34 35  1  0
 34 53  1  0
 35 36  1  0
 35 52  2  0
 36 37  1  0
 36 51  1  0
 36 73  1  0
 37 38  1  0
 38 39  1  0
 39 40  1  0
 39 50  1  0
 40 41  1  0
 40 49  2  0
 42 43  1  0
 43 44  1  0
 43 47  1  0
 43 48  1  0
 44 45  1  0
 44 46  1  0
 50 51  1  0
 55 56  1  0
 56 57  1  0
 56 61  1  0
 57 58  1  0
 58 59  1  0
 58 71  1  0
 59 60  1  0
 60 61  1  0
 63 64  1  0
 64 65  1  0
 67 68  2  0
 67 72  1  0
 68 69  1  0
 69 70  2  0
 70 71  1  0
 71 72  2  0
 41 42  3  0
  1 74  1  0
  1 75  1  0
  1 76  1  0
  2 77  1  6
  4 78  1  0
  4 79  1  0
  4 80  1  0
  7 81  1  0
  8 82  1  0
  9 83  1  0
 13 84  1  0
 13 85  1  0
 14 86  1  0
 14 87  1  0
 14 88  1  0
 16 89  1  0
 16 90  1  0
 18 91  1  0
 18 92  1  0
 18 93  1  0
 19 94  1  0
 19 95  1  0
 19 96  1  0
 20 97  1  0
 20 98  1  0
 23 99  1  1
 24100  1  0
 27101  1  6
 28102  1  0
 30103  1  1
 31104  1  0
 32105  1  0
 32106  1  0
 32107  1  0
 33108  1  0
 33109  1  0
 33110  1  0
 37111  1  0
 37112  1  0
 38113  1  0
 38114  1  0
 45115  1  0
 45116  1  0
 45117  1  0
 46118  1  0
 46119  1  0
 46120  1  0
 47121  1  0
 47122  1  0
 47123  1  0
 48124  1  0
 48125  1  0
 48126  1  0
 50127  1  0
 50128  1  0
 51129  1  0
 51130  1  0
 53131  1  0
 53132  1  0
 53133  1  0
 55134  1  0
 55135  1  0
 56136  1  1
 57137  1  0
 57138  1  0
 59139  1  0
 59140  1  0
 60141  1  0
 60142  1  0
 63143  1  0
 63144  1  0
 64145  1  0
 64146  1  0
 65147  1  0
 65148  1  0
 69149  1  0
 70150  1  0
 72151  1  0
M  END
$$$$
