 xtb: 6.7.1 (edcfbbe)
          08182519523D

151157  0     0  0            999 V2000
   -0.2591   15.7144  -10.7848 C   0  0  0  0  0  0  0  0  0  0  0  0
    0.6507   14.6855  -11.4677 C   0  0  0  0  0  0  0  0  0  0  0  0
   -0.0636   13.5859  -12.0025 O   0  0  0  0  0  0  0  0  0  0  0  0
   -0.9152   13.9033  -13.0717 C   0  0  0  0  0  0  0  0  0  0  0  0
    1.6801   14.1417  -10.5009 C   0  0  0  0  0  0  0  0  0  0  0  0
    2.9060   14.6088  -10.6865 N   0  0  0  0  0  0  0  0  0  0  0  0
    3.8921   14.1761   -9.9228 C   0  0  0  0  0  0  0  0  0  0  0  0
    3.7164   13.2227   -8.9337 C   0  0  0  0  0  0  0  0  0  0  0  0
    2.4362   12.7394   -8.7240 C   0  0  0  0  0  0  0  0  0  0  0  0
    1.3783   13.2098   -9.4992 C   0  0  0  0  0  0  0  0  0  0  0  0
    0.0167   12.7073   -9.2614 C   0  0  0  0  0  0  0  0  0  0  0  0
   -0.4493   11.6204   -9.9569 N   0  0  0  0  0  0  0  0  0  0  0  0
    0.3089   10.8156  -10.8747 C   0  0  0  0  0  0  0  0  0  0  0  0
    0.9337    9.6090  -10.1747 C   0  0  0  0  0  0  0  0  0  0  0  0
   -0.9505   13.1695   -8.3964 C   0  0  0  0  0  0  0  0  0  0  0  0
   -0.9045   14.3111   -7.4285 C   0  0  0  0  0  0  0  0  0  0  0  0
   -0.0984   14.1047   -6.1093 C   0  0  0  0  0  0  0  0  0  0  0  0
   -0.8729   14.7399   -4.9502 C   0  0  0  0  0  0  0  0  0  0  0  0
    1.2528   14.8200   -6.2306 C   0  0  0  0  0  0  0  0  0  0  0  0
    0.1766   12.6191   -5.7964 C   0  0  0  0  0  0  0  0  0  0  0  0
   -0.7412   12.0632   -4.8492 O   0  0  0  0  0  0  0  0  0  0  0  0
   -1.2555   10.8710   -5.1046 C   0  0  0  0  0  0  0  0  0  0  0  0
   -2.0767   10.3611   -3.9231 C   0  0  0  0  0  0  0  0  0  0  0  0
   -2.2819    8.9329   -4.1167 N   0  0  0  0  0  0  0  0  0  0  0  0
   -3.1152    8.3718   -3.1442 N   0  0  0  0  0  0  0  0  0  0  0  0
   -4.3761    7.9364   -3.2979 C   0  0  0  0  0  0  0  0  0  0  0  0
   -5.0483    8.2087   -4.6477 C   0  0  0  0  0  0  0  0  0  0  0  0
   -6.1156    7.2551   -4.8248 N   0  0  0  0  0  0  0  0  0  0  0  0
   -6.2247    6.5265   -5.9534 C   0  0  0  0  0  0  0  0  0  0  0  0
   -7.3161    5.4545   -5.8977 C   0  0  0  0  0  0  0  0  0  0  0  0
   -6.7408    4.0980   -5.4313 C   0  0  0  0  0  0  0  0  0  0  0  0
   -7.8034    3.0088   -5.5683 C   0  0  0  0  0  0  0  0  0  0  0  0
   -6.2741    4.1869   -3.9797 C   0  0  0  0  0  0  0  0  0  0  0  0
   -7.9975    5.3598   -7.1834 N   0  0  0  0  0  0  0  0  0  0  0  0
   -9.2893    5.7337   -7.2131 C   0  0  0  0  0  0  0  0  0  0  0  0
  -10.0854    5.6248   -8.5274 C   0  0  0  0  0  0  0  0  0  0  0  0
  -11.2459    6.6243   -8.5157 C   0  0  0  0  0  0  0  0  0  0  0  0
  -12.1283    6.4282   -9.7501 C   0  0  0  0  0  0  0  0  0  0  0  0
  -12.5865    5.0656   -9.8328 N   0  0  0  0  0  0  0  0  0  0  0  0
  -13.8811    4.6672   -9.7621 C   0  0  0  0  0  0  0  0  0  0  0  0
  -14.8472    5.7361   -9.6827 C   0  0  0  0  0  0  0  0  0  0  0  0
  -15.8003    6.4714   -9.6320 C   0  0  0  0  0  0  0  0  0  0  0  0
  -16.8363    7.4988   -9.5319 C   0  0  0  0  0  0  0  0  0  0  0  0
  -16.2731    8.8016   -9.1371 N   0  0  0  0  0  0  0  0  0  0  0  0
  -15.6133    8.7771   -7.8448 C   0  0  0  0  0  0  0  0  0  0  0  0
  -15.4063    9.3923  -10.1386 C   0  0  0  0  0  0  0  0  0  0  0  0
  -17.8761    7.0465   -8.4931 C   0  0  0  0  0  0  0  0  0  0  0  0
  -17.5374    7.6141  -10.8949 C   0  0  0  0  0  0  0  0  0  0  0  0
  -14.2204    3.4976   -9.7819 O   0  0  0  0  0  0  0  0  0  0  0  0
  -11.5298    4.0859   -9.8931 C   0  0  0  0  0  0  0  0  0  0  0  0
  -10.6291    4.1963   -8.6618 C   0  0  0  0  0  0  0  0  0  0  0  0
   -9.8941    6.0861   -6.2100 O   0  0  0  0  0  0  0  0  0  0  0  0
   -7.2120    4.9853   -8.3407 C   0  0  0  0  0  0  0  0  0  0  0  0
   -5.5250    6.7288   -6.9261 O   0  0  0  0  0  0  0  0  0  0  0  0
   -5.5785    9.6581   -4.6301 C   0  0  0  0  0  0  0  0  0  0  0  0
   -5.0745   10.4907   -5.8162 C   0  0  0  0  0  0  0  0  0  0  0  0
   -5.8534   10.2176   -7.1143 C   0  0  0  0  0  0  0  0  0  0  0  0
   -5.6271   11.3092   -8.0406 N   0  0  0  0  0  0  0  0  0  0  0  0
   -6.2409   12.5222   -7.5303 C   0  0  0  0  0  0  0  0  0  0  0  0
   -6.1853   12.5923   -5.9876 C   0  0  0  0  0  0  0  0  0  0  0  0
   -5.0807   11.8758   -5.4805 O   0  0  0  0  0  0  0  0  0  0  0  0
   -4.9863    7.3656   -2.4066 O   0  0  0  0  0  0  0  0  0  0  0  0
   -2.4708    8.4068   -1.8454 C   0  0  0  0  0  0  0  0  0  0  0  0
   -2.1838    9.8651   -1.4793 C   0  0  0  0  0  0  0  0  0  0  0  0
   -1.3555   10.5289   -2.5807 C   0  0  0  0  0  0  0  0  0  0  0  0
   -1.1042   10.2452   -6.1215 O   0  0  0  0  0  0  0  0  0  0  0  0
   -2.0921   12.3348   -8.5978 C   0  0  0  0  0  0  0  0  0  0  0  0
   -1.7343   11.3737   -9.5696 C   0  0  0  0  0  0  0  0  0  0  0  0
   -2.6360   10.3995   -9.9836 C   0  0  0  0  0  0  0  0  0  0  0  0
   -3.8991   10.4206   -9.4431 C   0  0  0  0  0  0  0  0  0  0  0  0
   -4.2818   11.3836   -8.4931 C   0  0  0  0  0  0  0  0  0  0  0  0
   -3.3771   12.3313   -8.0565 C   0  0  0  0  0  0  0  0  0  0  0  0
   -9.3051    5.9197   -9.6407 F   0  0  0  0  0  0  0  0  0  0  0  0
   -0.9776   15.1991  -10.1536 H   0  0  0  0  0  0  0  0  0  0  0  0
    0.3450   16.3862  -10.1808 H   0  0  0  0  0  0  0  0  0  0  0  0
   -0.7945   16.3040  -11.5249 H   0  0  0  0  0  0  0  0  0  0  0  0
    1.2110   15.1875  -12.2744 H   0  0  0  0  0  0  0  0  0  0  0  0
   -1.2632   12.9532  -13.4734 H   0  0  0  0  0  0  0  0  0  0  0  0
   -1.7809   14.4899  -12.7471 H   0  0  0  0  0  0  0  0  0  0  0  0
   -0.3806   14.4558  -13.8545 H   0  0  0  0  0  0  0  0  0  0  0  0
    4.8634   14.6062  -10.1285 H   0  0  0  0  0  0  0  0  0  0  0  0
    4.5499   12.8704   -8.3461 H   0  0  0  0  0  0  0  0  0  0  0  0
    2.2472   11.9975   -7.9607 H   0  0  0  0  0  0  0  0  0  0  0  0
   -0.3632   10.4796  -11.6685 H   0  0  0  0  0  0  0  0  0  0  0  0
    1.0817   11.4401  -11.3278 H   0  0  0  0  0  0  0  0  0  0  0  0
    1.6686    9.9325   -9.4414 H   0  0  0  0  0  0  0  0  0  0  0  0
    0.1661    9.0354   -9.6606 H   0  0  0  0  0  0  0  0  0  0  0  0
    1.4274    8.9685  -10.9010 H   0  0  0  0  0  0  0  0  0  0  0  0
   -0.4938   15.1953   -7.9206 H   0  0  0  0  0  0  0  0  0  0  0  0
   -1.9383   14.5383   -7.1636 H   0  0  0  0  0  0  0  0  0  0  0  0
   -0.3171   14.6371   -4.0210 H   0  0  0  0  0  0  0  0  0  0  0  0
   -1.0298   15.7982   -5.1459 H   0  0  0  0  0  0  0  0  0  0  0  0
   -1.8395   14.2599   -4.8227 H   0  0  0  0  0  0  0  0  0  0  0  0
    1.8270   14.7184   -5.3118 H   0  0  0  0  0  0  0  0  0  0  0  0
    1.8360   14.4126   -7.0516 H   0  0  0  0  0  0  0  0  0  0  0  0
    1.0988   15.8810   -6.4141 H   0  0  0  0  0  0  0  0  0  0  0  0
    0.1361   12.0161   -6.7077 H   0  0  0  0  0  0  0  0  0  0  0  0
    1.1680   12.5185   -5.3415 H   0  0  0  0  0  0  0  0  0  0  0  0
   -3.0167   10.9400   -3.9063 H   0  0  0  0  0  0  0  0  0  0  0  0
   -2.5613    8.7092   -5.0648 H   0  0  0  0  0  0  0  0  0  0  0  0
   -4.3675    8.0580   -5.4917 H   0  0  0  0  0  0  0  0  0  0  0  0
   -6.6064    7.0003   -3.9783 H   0  0  0  0  0  0  0  0  0  0  0  0
   -8.0867    5.7651   -5.1840 H   0  0  0  0  0  0  0  0  0  0  0  0
   -5.8775    3.8386   -6.0532 H   0  0  0  0  0  0  0  0  0  0  0  0
   -8.7003    3.2894   -5.0209 H   0  0  0  0  0  0  0  0  0  0  0  0
   -8.0732    2.8471   -6.6084 H   0  0  0  0  0  0  0  0  0  0  0  0
   -7.4301    2.0711   -5.1642 H   0  0  0  0  0  0  0  0  0  0  0  0
   -7.0999    4.4647   -3.3283 H   0  0  0  0  0  0  0  0  0  0  0  0
   -5.9003    3.2184   -3.6556 H   0  0  0  0  0  0  0  0  0  0  0  0
   -5.4737    4.9112   -3.8552 H   0  0  0  0  0  0  0  0  0  0  0  0
  -11.8175    6.4728   -7.6005 H   0  0  0  0  0  0  0  0  0  0  0  0
  -10.8423    7.6379   -8.5077 H   0  0  0  0  0  0  0  0  0  0  0  0
  -12.9901    7.0968   -9.7057 H   0  0  0  0  0  0  0  0  0  0  0  0
  -11.5448    6.6621  -10.6499 H   0  0  0  0  0  0  0  0  0  0  0  0
  -15.2492    9.7801   -7.6259 H   0  0  0  0  0  0  0  0  0  0  0  0
  -16.3229    8.5051   -7.0680 H   0  0  0  0  0  0  0  0  0  0  0  0
  -14.7613    8.0816   -7.8065 H   0  0  0  0  0  0  0  0  0  0  0  0
  -14.9993   10.3195   -9.7375 H   0  0  0  0  0  0  0  0  0  0  0  0
  -14.5652    8.7414  -10.4240 H   0  0  0  0  0  0  0  0  0  0  0  0
  -15.9777    9.6397  -11.0299 H   0  0  0  0  0  0  0  0  0  0  0  0
  -17.4042    6.7158   -7.5722 H   0  0  0  0  0  0  0  0  0  0  0  0
  -18.5501    7.8716   -8.2779 H   0  0  0  0  0  0  0  0  0  0  0  0
  -18.4489    6.2119   -8.8892 H   0  0  0  0  0  0  0  0  0  0  0  0
  -18.2132    8.4654  -10.8820 H   0  0  0  0  0  0  0  0  0  0  0  0
  -16.8221    7.7315  -11.7045 H   0  0  0  0  0  0  0  0  0  0  0  0
  -18.1092    6.7096  -11.0866 H   0  0  0  0  0  0  0  0  0  0  0  0
  -11.9929    3.0983   -9.9432 H   0  0  0  0  0  0  0  0  0  0  0  0
  -10.9338    4.2552  -10.7980 H   0  0  0  0  0  0  0  0  0  0  0  0
   -9.8090    3.4824   -8.7470 H   0  0  0  0  0  0  0  0  0  0  0  0
  -11.1967    3.9679   -7.7587 H   0  0  0  0  0  0  0  0  0  0  0  0
   -6.2673    4.5735   -8.0021 H   0  0  0  0  0  0  0  0  0  0  0  0
   -7.7269    4.2373   -8.9422 H   0  0  0  0  0  0  0  0  0  0  0  0
   -6.9919    5.8526   -8.9635 H   0  0  0  0  0  0  0  0  0  0  0  0
   -6.6701    9.6320   -4.6331 H   0  0  0  0  0  0  0  0  0  0  0  0
   -5.2721   10.1602   -3.7082 H   0  0  0  0  0  0  0  0  0  0  0  0
   -4.0169   10.2658   -6.0077 H   0  0  0  0  0  0  0  0  0  0  0  0
   -5.5206    9.2748   -7.5486 H   0  0  0  0  0  0  0  0  0  0  0  0
   -6.9280   10.1491   -6.9195 H   0  0  0  0  0  0  0  0  0  0  0  0
   -5.7511   13.3833   -7.9845 H   0  0  0  0  0  0  0  0  0  0  0  0
   -7.2916   12.5224   -7.8486 H   0  0  0  0  0  0  0  0  0  0  0  0
   -6.0464   13.6184   -5.6414 H   0  0  0  0  0  0  0  0  0  0  0  0
   -7.1176   12.2048   -5.5532 H   0  0  0  0  0  0  0  0  0  0  0  0
   -3.1417    7.9349   -1.1274 H   0  0  0  0  0  0  0  0  0  0  0  0
   -1.5363    7.8428   -1.9077 H   0  0  0  0  0  0  0  0  0  0  0  0
   -3.1300   10.3976   -1.3606 H   0  0  0  0  0  0  0  0  0  0  0  0
   -1.6491    9.9045   -0.5304 H   0  0  0  0  0  0  0  0  0  0  0  0
   -0.3818   10.0408   -2.6468 H   0  0  0  0  0  0  0  0  0  0  0  0
   -1.2051   11.5867   -2.3694 H   0  0  0  0  0  0  0  0  0  0  0  0
   -2.3646    9.6522  -10.7138 H   0  0  0  0  0  0  0  0  0  0  0  0
   -4.6312    9.6901   -9.7508 H   0  0  0  0  0  0  0  0  0  0  0  0
   -3.6467   13.0485   -7.2959 H   0  0  0  0  0  0  0  0  0  0  0  0
  1  2  1  0  0  0  0
  2  3  1  0  0  0  0
  3  4  1  0  0  0  0
  2  5  1  0  0  0  0
  5  6  4  0  0  0  0
  6  7  4  0  0  0  0
  7  8  4  0  0  0  0
  8  9  4  0  0  0  0
  5 10  4  0  0  0  0
  9 10  4  0  0  0  0
 10 11  1  0  0  0  0
 11 12  1  0  0  0  0
 12 13  1  0  0  0  0
 13 14  1  0  0  0  0
 11 15  2  0  0  0  0
 15 16  1  0  0  0  0
 16 17  1  0  0  0  0
 17 18  1  0  0  0  0
 17 19  1  0  0  0  0
 17 20  1  0  0  0  0
 20 21  1  0  0  0  0
 21 22  1  0  0  0  0
 22 23  1  0  0  0  0
 23 24  1  0  0  0  0
 24 25  1  0  0  0  0
 25 26  4  0  0  0  0
 26 27  1  0  0  0  0
 27 28  1  0  0  0  0
 28 29  4  0  0  0  0
 29 30  1  0  0  0  0
 30 31  1  0  0  0  0
 31 32  1  0  0  0  0
 31 33  1  0  0  0  0
 30 34  1  0  0  0  0
 34 35  4  0  0  0  0
 35 36  1  0  0  0  0
 36 37  1  0  0  0  0
 37 38  1  0  0  0  0
 38 39  1  0  0  0  0
 39 40  4  0  0  0  0
 40 41  1  0  0  0  0
 41 42  3  0  0  0  0
 42 43  1  0  0  0  0
 43 44  1  0  0  0  0
 44 45  1  0  0  0  0
 44 46  1  0  0  0  0
 43 47  1  0  0  0  0
 43 48  1  0  0  0  0
 40 49  2  0  0  0  0
 39 50  1  0  0  0  0
 36 51  1  0  0  0  0
 50 51  1  0  0  0  0
 35 52  2  0  0  0  0
 34 53  1  0  0  0  0
 29 54  2  0  0  0  0
 27 55  1  0  0  0  0
 55 56  1  0  0  0  0
 56 57  1  0  0  0  0
 57 58  1  0  0  0  0
 58 59  1  0  0  0  0
 59 60  1  0  0  0  0
 56 61  1  0  0  0  0
 60 61  1  0  0  0  0
 26 62  2  0  0  0  0
 25 63  1  0  0  0  0
 63 64  1  0  0  0  0
 23 65  1  0  0  0  0
 64 65  1  0  0  0  0
 22 66  2  0  0  0  0
 15 67  4  0  0  0  0
 12 68  1  0  0  0  0
 67 68  4  0  0  0  0
 68 69  4  0  0  0  0
 69 70  2  0  0  0  0
 58 71  1  0  0  0  0
 70 71  4  0  0  0  0
 67 72  4  0  0  0  0
 71 72  4  0  0  0  0
 36 73  1  0  0  0  0
  1 74  1  0  0  0  0
  1 75  1  0  0  0  0
  1 76  1  0  0  0  0
  2 77  1  0  0  0  0
  4 78  1  0  0  0  0
  4 79  1  0  0  0  0
  4 80  1  0  0  0  0
  7 81  1  0  0  0  0
  8 82  1  0  0  0  0
  9 83  1  0  0  0  0
 13 84  1  0  0  0  0
 13 85  1  0  0  0  0
 14 86  1  0  0  0  0
 14 87  1  0  0  0  0
 14 88  1  0  0  0  0
 16 89  1  0  0  0  0
 16 90  1  0  0  0  0
 18 91  1  0  0  0  0
 18 92  1  0  0  0  0
 18 93  1  0  0  0  0
 19 94  1  0  0  0  0
 19 95  1  0  0  0  0
 19 96  1  0  0  0  0
 20 97  1  0  0  0  0
 20 98  1  0  0  0  0
 23 99  1  0  0  0  0
 24100  1  0  0  0  0
 27101  1  0  0  0  0
 28102  1  0  0  0  0
 30103  1  0  0  0  0
 31104  1  0  0  0  0
 32105  1  0  0  0  0
 32106  1  0  0  0  0
 32107  1  0  0  0  0
 33108  1  0  0  0  0
 33109  1  0  0  0  0
 33110  1  0  0  0  0
 37111  1  0  0  0  0
 37112  1  0  0  0  0
 38113  1  0  0  0  0
 38114  1  0  0  0  0
 45115  1  0  0  0  0
 45116  1  0  0  0  0
 45117  1  0  0  0  0
 46118  1  0  0  0  0
 46119  1  0  0  0  0
 46120  1  0  0  0  0
 47121  1  0  0  0  0
 47122  1  0  0  0  0
 47123  1  0  0  0  0
 48124  1  0  0  0  0
 48125  1  0  0  0  0
 48126  1  0  0  0  0
 50127  1  0  0  0  0
 50128  1  0  0  0  0
 51129  1  0  0  0  0
 51130  1  0  0  0  0
 53131  1  0  0  0  0
 53132  1  0  0  0  0
 53133  1  0  0  0  0
 55134  1  0  0  0  0
 55135  1  0  0  0  0
 56136  1  0  0  0  0
 57137  1  0  0  0  0
 57138  1  0  0  0  0
 59139  1  0  0  0  0
 59140  1  0  0  0  0
 60141  1  0  0  0  0
 60142  1  0  0  0  0
 63143  1  0  0  0  0
 63144  1  0  0  0  0
 64145  1  0  0  0  0
 64146  1  0  0  0  0
 65147  1  0  0  0  0
 65148  1  0  0  0  0
 69149  1  0  0  0  0
 70150  1  0  0  0  0
 72151  1  0  0  0  0
M  END
$$$$
