 energy: -221.271067713815 gnorm: 0.000317432602 xtb: 6.7.1 (edcfbbe)
          08182523303D

151157  0     0  0            999 V2000
   -0.1585   15.6660  -12.6098 C   0  0  0  0  0  0  0  0  0  0  0  0
   -0.2435   15.0706  -11.2030 C   0  0  0  0  0  0  0  0  0  0  0  0
   -0.2873   16.0599  -10.1849 O   0  0  0  0  0  0  0  0  0  0  0  0
   -1.4859   16.7906  -10.1319 C   0  0  0  0  0  0  0  0  0  0  0  0
    0.9823   14.2231  -10.9271 C   0  0  0  0  0  0  0  0  0  0  0  0
    2.1380   14.7287  -11.3255 N   0  0  0  0  0  0  0  0  0  0  0  0
    3.2474   14.0398  -11.1439 C   0  0  0  0  0  0  0  0  0  0  0  0
    3.2692   12.7783  -10.5687 C   0  0  0  0  0  0  0  0  0  0  0  0
    2.0667   12.2403  -10.1487 C   0  0  0  0  0  0  0  0  0  0  0  0
    0.8882   12.9693  -10.3073 C   0  0  0  0  0  0  0  0  0  0  0  0
   -0.3966   12.4140   -9.8669 C   0  0  0  0  0  0  0  0  0  0  0  0
   -0.9657   11.3588  -10.5520 N   0  0  0  0  0  0  0  0  0  0  0  0
   -0.4193   10.6799  -11.6966 C   0  0  0  0  0  0  0  0  0  0  0  0
    0.1437    9.3055  -11.3346 C   0  0  0  0  0  0  0  0  0  0  0  0
   -1.2232   12.8130   -8.8420 C   0  0  0  0  0  0  0  0  0  0  0  0
   -1.0246   13.8895   -7.8233 C   0  0  0  0  0  0  0  0  0  0  0  0
    0.0025   13.6010   -6.6991 C   0  0  0  0  0  0  0  0  0  0  0  0
   -0.3368   14.4815   -5.4935 C   0  0  0  0  0  0  0  0  0  0  0  0
    1.4204   13.9402   -7.1701 C   0  0  0  0  0  0  0  0  0  0  0  0
    0.0066   12.1249   -6.2817 C   0  0  0  0  0  0  0  0  0  0  0  0
   -1.0646   11.8113   -5.3828 O   0  0  0  0  0  0  0  0  0  0  0  0
   -1.0697   10.5702   -4.9373 C   0  0  0  0  0  0  0  0  0  0  0  0
   -2.1037   10.3334   -3.8438 C   0  0  0  0  0  0  0  0  0  0  0  0
   -2.5946    8.9717   -4.0132 N   0  0  0  0  0  0  0  0  0  0  0  0
   -3.2832    8.4773   -2.9035 N   0  0  0  0  0  0  0  0  0  0  0  0
   -4.5498    8.0278   -3.0220 C   0  0  0  0  0  0  0  0  0  0  0  0
   -5.1736    8.2538   -4.3956 C   0  0  0  0  0  0  0  0  0  0  0  0
   -6.2735    7.3422   -4.5846 N   0  0  0  0  0  0  0  0  0  0  0  0
   -6.3771    6.5654   -5.6785 C   0  0  0  0  0  0  0  0  0  0  0  0
   -7.5895    5.6276   -5.6621 C   0  0  0  0  0  0  0  0  0  0  0  0
   -7.1896    4.2059   -5.2188 C   0  0  0  0  0  0  0  0  0  0  0  0
   -8.3728    3.2537   -5.3788 C   0  0  0  0  0  0  0  0  0  0  0  0
   -6.7278    4.2310   -3.7629 C   0  0  0  0  0  0  0  0  0  0  0  0
   -8.2482    5.6604   -6.9636 N   0  0  0  0  0  0  0  0  0  0  0  0
   -9.4337    6.2937   -7.0208 C   0  0  0  0  0  0  0  0  0  0  0  0
  -10.2082    6.3526   -8.3510 C   0  0  0  0  0  0  0  0  0  0  0  0
  -11.1312    7.5749   -8.3582 C   0  0  0  0  0  0  0  0  0  0  0  0
  -12.0244    7.5602   -9.6004 C   0  0  0  0  0  0  0  0  0  0  0  0
  -12.7581    6.3233   -9.6764 N   0  0  0  0  0  0  0  0  0  0  0  0
  -14.1041    6.2059   -9.5705 C   0  0  0  0  0  0  0  0  0  0  0  0
  -14.8261    7.4519   -9.4869 C   0  0  0  0  0  0  0  0  0  0  0  0
  -15.5531    8.4106   -9.4377 C   0  0  0  0  0  0  0  0  0  0  0  0
  -16.4749    9.5387   -9.3130 C   0  0  0  0  0  0  0  0  0  0  0  0
  -17.7219    9.1325   -8.6447 N   0  0  0  0  0  0  0  0  0  0  0  0
  -17.5223    8.6748   -7.2810 C   0  0  0  0  0  0  0  0  0  0  0  0
  -18.4819    8.1450   -9.3921 C   0  0  0  0  0  0  0  0  0  0  0  0
  -15.7905   10.6587   -8.5112 C   0  0  0  0  0  0  0  0  0  0  0  0
  -16.7838   10.0738  -10.7214 C   0  0  0  0  0  0  0  0  0  0  0  0
  -14.6842    5.1341   -9.5672 O   0  0  0  0  0  0  0  0  0  0  0  0
  -11.9297    5.1440   -9.7300 C   0  0  0  0  0  0  0  0  0  0  0  0
  -11.0331    5.0669   -8.4930 C   0  0  0  0  0  0  0  0  0  0  0  0
   -9.9783    6.7570   -6.0280 O   0  0  0  0  0  0  0  0  0  0  0  0
   -7.5089    5.1768   -8.1106 C   0  0  0  0  0  0  0  0  0  0  0  0
   -5.5946    6.6272   -6.6060 O   0  0  0  0  0  0  0  0  0  0  0  0
   -5.6396    9.7221   -4.4591 C   0  0  0  0  0  0  0  0  0  0  0  0
   -5.1730   10.4287   -5.7367 C   0  0  0  0  0  0  0  0  0  0  0  0
   -5.9941   10.0209   -6.9744 C   0  0  0  0  0  0  0  0  0  0  0  0
   -5.8625   11.0244   -8.0106 N   0  0  0  0  0  0  0  0  0  0  0  0
   -6.4408   12.2863   -7.5779 C   0  0  0  0  0  0  0  0  0  0  0  0
   -6.3291   12.4822   -6.0516 C   0  0  0  0  0  0  0  0  0  0  0  0
   -5.1821   11.8410   -5.5425 O   0  0  0  0  0  0  0  0  0  0  0  0
   -5.1636    7.5229   -2.1015 O   0  0  0  0  0  0  0  0  0  0  0  0
   -2.6119    8.5518   -1.6206 C   0  0  0  0  0  0  0  0  0  0  0  0
   -2.2481   10.0116   -1.3493 C   0  0  0  0  0  0  0  0  0  0  0  0
   -1.3825   10.5367   -2.4936 C   0  0  0  0  0  0  0  0  0  0  0  0
   -0.2971    9.7116   -5.2874 O   0  0  0  0  0  0  0  0  0  0  0  0
   -2.3846   11.9841   -8.9206 C   0  0  0  0  0  0  0  0  0  0  0  0
   -2.1840   11.0862   -9.9932 C   0  0  0  0  0  0  0  0  0  0  0  0
   -3.1513   10.1488  -10.3411 C   0  0  0  0  0  0  0  0  0  0  0  0
   -4.3312   10.1526   -9.6354 C   0  0  0  0  0  0  0  0  0  0  0  0
   -4.5685   11.0702   -8.5983 C   0  0  0  0  0  0  0  0  0  0  0  0
   -3.5906   11.9692   -8.2204 C   0  0  0  0  0  0  0  0  0  0  0  0
   -9.3662    6.4726   -9.4518 F   0  0  0  0  0  0  0  0  0  0  0  0
   -1.0626   16.2181  -12.8526 H   0  0  0  0  0  0  0  0  0  0  0  0
    0.7014   16.3267  -12.6640 H   0  0  0  0  0  0  0  0  0  0  0  0
   -0.0356   14.8649  -13.3339 H   0  0  0  0  0  0  0  0  0  0  0  0
   -1.1455   14.4395  -11.1227 H   0  0  0  0  0  0  0  0  0  0  0  0
   -2.3550   16.1216  -10.0877 H   0  0  0  0  0  0  0  0  0  0  0  0
   -1.4399   17.3839   -9.2198 H   0  0  0  0  0  0  0  0  0  0  0  0
   -1.5971   17.4641  -10.9877 H   0  0  0  0  0  0  0  0  0  0  0  0
    4.1551   14.5182  -11.4874 H   0  0  0  0  0  0  0  0  0  0  0  0
    4.1946   12.2363  -10.4514 H   0  0  0  0  0  0  0  0  0  0  0  0
    2.0331   11.2653   -9.6820 H   0  0  0  0  0  0  0  0  0  0  0  0
   -1.2145   10.5633  -12.4411 H   0  0  0  0  0  0  0  0  0  0  0  0
    0.3663   11.3051  -12.1300 H   0  0  0  0  0  0  0  0  0  0  0  0
    0.9715    9.4001  -10.6368 H   0  0  0  0  0  0  0  0  0  0  0  0
   -0.6248    8.6932  -10.8703 H   0  0  0  0  0  0  0  0  0  0  0  0
    0.5006    8.8033  -12.2299 H   0  0  0  0  0  0  0  0  0  0  0  0
   -0.7099   14.8087   -8.3192 H   0  0  0  0  0  0  0  0  0  0  0  0
   -1.9940   14.0690   -7.3565 H   0  0  0  0  0  0  0  0  0  0  0  0
    0.3826   14.3254   -4.6921 H   0  0  0  0  0  0  0  0  0  0  0  0
   -0.3085   15.5291   -5.7832 H   0  0  0  0  0  0  0  0  0  0  0  0
   -1.3279   14.2472   -5.1147 H   0  0  0  0  0  0  0  0  0  0  0  0
    2.1127   13.9335   -6.3303 H   0  0  0  0  0  0  0  0  0  0  0  0
    1.7682   13.2191   -7.9025 H   0  0  0  0  0  0  0  0  0  0  0  0
    1.4429   14.9263   -7.6267 H   0  0  0  0  0  0  0  0  0  0  0  0
   -0.0727   11.4744   -7.1587 H   0  0  0  0  0  0  0  0  0  0  0  0
    0.9454   11.8833   -5.7693 H   0  0  0  0  0  0  0  0  0  0  0  0
   -2.9342   11.0372   -3.9460 H   0  0  0  0  0  0  0  0  0  0  0  0
   -1.7927    8.3722   -4.2253 H   0  0  0  0  0  0  0  0  0  0  0  0
   -4.4413    8.0523   -5.1813 H   0  0  0  0  0  0  0  0  0  0  0  0
   -6.8645    7.1976   -3.7785 H   0  0  0  0  0  0  0  0  0  0  0  0
   -8.3319    6.0116   -4.9547 H   0  0  0  0  0  0  0  0  0  0  0  0
   -6.3556    3.8540   -5.8346 H   0  0  0  0  0  0  0  0  0  0  0  0
   -9.2326    3.6281   -4.8278 H   0  0  0  0  0  0  0  0  0  0  0  0
   -8.6550    3.1466   -6.4226 H   0  0  0  0  0  0  0  0  0  0  0  0
   -8.1159    2.2705   -4.9922 H   0  0  0  0  0  0  0  0  0  0  0  0
   -7.5290    4.5764   -3.1131 H   0  0  0  0  0  0  0  0  0  0  0  0
   -6.4451    3.2291   -3.4484 H   0  0  0  0  0  0  0  0  0  0  0  0
   -5.8675    4.8817   -3.6287 H   0  0  0  0  0  0  0  0  0  0  0  0
  -11.7310    7.5554   -7.4490 H   0  0  0  0  0  0  0  0  0  0  0  0
  -10.5210    8.4793   -8.3521 H   0  0  0  0  0  0  0  0  0  0  0  0
  -12.7262    8.3953   -9.5705 H   0  0  0  0  0  0  0  0  0  0  0  0
  -11.3971    7.6543  -10.4958 H   0  0  0  0  0  0  0  0  0  0  0  0
  -18.4930    8.4064   -6.8665 H   0  0  0  0  0  0  0  0  0  0  0  0
  -16.8626    7.7977   -7.2153 H   0  0  0  0  0  0  0  0  0  0  0  0
  -17.1118    9.4756   -6.6713 H   0  0  0  0  0  0  0  0  0  0  0  0
  -19.3706    7.8919   -8.8159 H   0  0  0  0  0  0  0  0  0  0  0  0
  -18.8102    8.5630  -10.3404 H   0  0  0  0  0  0  0  0  0  0  0  0
  -17.9159    7.2220   -9.5810 H   0  0  0  0  0  0  0  0  0  0  0  0
  -15.3347   10.2781   -7.6013 H   0  0  0  0  0  0  0  0  0  0  0  0
  -15.0063   11.1143   -9.1113 H   0  0  0  0  0  0  0  0  0  0  0  0
  -16.5260   11.4168   -8.2558 H   0  0  0  0  0  0  0  0  0  0  0  0
  -17.6031   10.7854  -10.6623 H   0  0  0  0  0  0  0  0  0  0  0  0
  -15.9072   10.5750  -11.1247 H   0  0  0  0  0  0  0  0  0  0  0  0
  -17.0509    9.2708  -11.4026 H   0  0  0  0  0  0  0  0  0  0  0  0
  -12.5880    4.2743   -9.7812 H   0  0  0  0  0  0  0  0  0  0  0  0
  -11.3072    5.1839  -10.6318 H   0  0  0  0  0  0  0  0  0  0  0  0
  -10.3742    4.2014   -8.5731 H   0  0  0  0  0  0  0  0  0  0  0  0
  -11.6422    4.9588   -7.5945 H   0  0  0  0  0  0  0  0  0  0  0  0
   -6.6570    4.6046   -7.7599 H   0  0  0  0  0  0  0  0  0  0  0  0
   -8.1297    4.5381   -8.7380 H   0  0  0  0  0  0  0  0  0  0  0  0
   -7.1280    6.0038   -8.7104 H   0  0  0  0  0  0  0  0  0  0  0  0
   -6.7291    9.7513   -4.3895 H   0  0  0  0  0  0  0  0  0  0  0  0
   -5.2443   10.2795   -3.6073 H   0  0  0  0  0  0  0  0  0  0  0  0
   -4.1191   10.1820   -5.9142 H   0  0  0  0  0  0  0  0  0  0  0  0
   -5.6436    9.0573   -7.3448 H   0  0  0  0  0  0  0  0  0  0  0  0
   -7.0559    9.9302   -6.7225 H   0  0  0  0  0  0  0  0  0  0  0  0
   -5.9497   13.0992   -8.1137 H   0  0  0  0  0  0  0  0  0  0  0  0
   -7.5019   12.2835   -7.8611 H   0  0  0  0  0  0  0  0  0  0  0  0
   -6.2121   13.5376   -5.7973 H   0  0  0  0  0  0  0  0  0  0  0  0
   -7.2309   12.1039   -5.5501 H   0  0  0  0  0  0  0  0  0  0  0  0
   -3.2973    8.1572   -0.8702 H   0  0  0  0  0  0  0  0  0  0  0  0
   -1.7069    7.9332   -1.6469 H   0  0  0  0  0  0  0  0  0  0  0  0
   -3.1635   10.6023   -1.2766 H   0  0  0  0  0  0  0  0  0  0  0  0
   -1.7109   10.0913   -0.4040 H   0  0  0  0  0  0  0  0  0  0  0  0
   -0.4378    9.9855   -2.5142 H   0  0  0  0  0  0  0  0  0  0  0  0
   -1.1606   11.5954   -2.3572 H   0  0  0  0  0  0  0  0  0  0  0  0
   -2.9980    9.4514  -11.1506 H   0  0  0  0  0  0  0  0  0  0  0  0
   -5.1149    9.4539   -9.8830 H   0  0  0  0  0  0  0  0  0  0  0  0
   -3.7530   12.6488   -7.3980 H   0  0  0  0  0  0  0  0  0  0  0  0
  1  2  1  0  0  0  0
  2  3  1  0  0  0  0
  2  5  1  0  0  0  0
  3  4  1  0  0  0  0
  5  6  2  0  0  0  0
  5 10  1  0  0  0  0
  6  7  1  0  0  0  0
  7  8  2  0  0  0  0
  8  9  1  0  0  0  0
  9 10  2  0  0  0  0
 10 11  1  0  0  0  0
 11 12  1  0  0  0  0
 11 15  2  0  0  0  0
 12 13  1  0  0  0  0
 12 68  1  0  0  0  0
 13 14  1  0  0  0  0
 15 16  1  0  0  0  0
 15 67  1  0  0  0  0
 16 17  1  0  0  0  0
 17 18  1  0  0  0  0
 17 19  1  0  0  0  0
 17 20  1  0  0  0  0
 20 21  1  0  0  0  0
 21 22  1  0  0  0  0
 22 23  1  0  0  0  0
 22 66  2  0  0  0  0
 23 24  1  0  0  0  0
 23 65  1  0  0  0  0
 24 25  1  0  0  0  0
 25 26  1  0  0  0  0
 25 63  1  0  0  0  0
 26 27  1  0  0  0  0
 26 62  2  0  0  0  0
 27 28  1  0  0  0  0
 27 55  1  0  0  0  0
 28 29  1  0  0  0  0
 29 30  1  0  0  0  0
 29 54  2  0  0  0  0
 30 31  1  0  0  0  0
 30 34  1  0  0  0  0
 31 32  1  0  0  0  0
 31 33  1  0  0  0  0
 34 35  1  0  0  0  0
 34 53  1  0  0  0  0
 35 36  1  0  0  0  0
 35 52  2  0  0  0  0
 36 37  1  0  0  0  0
 36 51  1  0  0  0  0
 36 73  1  0  0  0  0
 37 38  1  0  0  0  0
 38 39  1  0  0  0  0
 39 40  1  0  0  0  0
 39 50  1  0  0  0  0
 40 41  1  0  0  0  0
 40 49  2  0  0  0  0
 42 43  1  0  0  0  0
 43 44  1  0  0  0  0
 43 47  1  0  0  0  0
 43 48  1  0  0  0  0
 44 45  1  0  0  0  0
 44 46  1  0  0  0  0
 50 51  1  0  0  0  0
 55 56  1  0  0  0  0
 56 57  1  0  0  0  0
 56 61  1  0  0  0  0
 57 58  1  0  0  0  0
 58 59  1  0  0  0  0
 58 71  1  0  0  0  0
 59 60  1  0  0  0  0
 60 61  1  0  0  0  0
 63 64  1  0  0  0  0
 64 65  1  0  0  0  0
 67 68  2  0  0  0  0
 67 72  1  0  0  0  0
 68 69  1  0  0  0  0
 69 70  2  0  0  0  0
 70 71  1  0  0  0  0
 71 72  2  0  0  0  0
 41 42  3  0  0  0  0
  1 74  1  0  0  0  0
  1 75  1  0  0  0  0
  1 76  1  0  0  0  0
  2 77  1  0  0  0  0
  4 78  1  0  0  0  0
  4 79  1  0  0  0  0
  4 80  1  0  0  0  0
  7 81  1  0  0  0  0
  8 82  1  0  0  0  0
  9 83  1  0  0  0  0
 13 84  1  0  0  0  0
 13 85  1  0  0  0  0
 14 86  1  0  0  0  0
 14 87  1  0  0  0  0
 14 88  1  0  0  0  0
 16 89  1  0  0  0  0
 16 90  1  0  0  0  0
 18 91  1  0  0  0  0
 18 92  1  0  0  0  0
 18 93  1  0  0  0  0
 19 94  1  0  0  0  0
 19 95  1  0  0  0  0
 19 96  1  0  0  0  0
 20 97  1  0  0  0  0
 20 98  1  0  0  0  0
 23 99  1  0  0  0  0
 24100  1  0  0  0  0
 27101  1  0  0  0  0
 28102  1  0  0  0  0
 30103  1  0  0  0  0
 31104  1  0  0  0  0
 32105  1  0  0  0  0
 32106  1  0  0  0  0
 32107  1  0  0  0  0
 33108  1  0  0  0  0
 33109  1  0  0  0  0
 33110  1  0  0  0  0
 37111  1  0  0  0  0
 37112  1  0  0  0  0
 38113  1  0  0  0  0
 38114  1  0  0  0  0
 45115  1  0  0  0  0
 45116  1  0  0  0  0
 45117  1  0  0  0  0
 46118  1  0  0  0  0
 46119  1  0  0  0  0
 46120  1  0  0  0  0
 47121  1  0  0  0  0
 47122  1  0  0  0  0
 47123  1  0  0  0  0
 48124  1  0  0  0  0
 48125  1  0  0  0  0
 48126  1  0  0  0  0
 50127  1  0  0  0  0
 50128  1  0  0  0  0
 51129  1  0  0  0  0
 51130  1  0  0  0  0
 53131  1  0  0  0  0
 53132  1  0  0  0  0
 53133  1  0  0  0  0
 55134  1  0  0  0  0
 55135  1  0  0  0  0
 56136  1  0  0  0  0
 57137  1  0  0  0  0
 57138  1  0  0  0  0
 59139  1  0  0  0  0
 59140  1  0  0  0  0
 60141  1  0  0  0  0
 60142  1  0  0  0  0
 63143  1  0  0  0  0
 63144  1  0  0  0  0
 64145  1  0  0  0  0
 64146  1  0  0  0  0
 65147  1  0  0  0  0
 65148  1  0  0  0  0
 69149  1  0  0  0  0
 70150  1  0  0  0  0
 72151  1  0  0  0  0
M  END
$$$$
