mol_bioactive_9
     RDKit          3D

151157  0  0  0  0  0  0  0  0999 V2000
    0.0865   15.7140  -12.4042 C   0  0  0  0  0  0  0  0  0  0  0  0
    0.0059   15.1091  -10.9990 C   0  0  2  0  0  0  0  0  0  0  0  0
   -0.0789   16.1548  -10.0163 O   0  0  0  0  0  0  0  0  0  0  0  0
   -1.3789   16.7159   -9.9049 C   0  0  0  0  0  0  0  0  0  0  0  0
    1.2340   14.2538  -10.6963 C   0  0  0  0  0  0  0  0  0  0  0  0
    2.4361   14.7464  -11.1268 N   0  0  0  0  0  0  0  0  0  0  0  0
    3.5455   14.0125  -10.9052 C   0  0  0  0  0  0  0  0  0  0  0  0
    3.5380   12.7866  -10.2734 C   0  0  0  0  0  0  0  0  0  0  0  0
    2.3189   12.2872   -9.8316 C   0  0  0  0  0  0  0  0  0  0  0  0
    1.1386   13.0203  -10.0258 C   0  0  0  0  0  0  0  0  0  0  0  0
   -0.1362   12.4306   -9.5964 C   0  0  0  0  0  0  0  0  0  0  0  0
   -0.7479   11.4051  -10.3020 N   0  0  0  0  0  0  0  0  0  0  0  0
   -0.2075   10.7191  -11.4723 C   0  0  0  0  0  0  0  0  0  0  0  0
    0.3454    9.3443  -11.1319 C   0  0  0  0  0  0  0  0  0  0  0  0
   -0.9727   12.7573   -8.5270 C   0  0  0  0  0  0  0  0  0  0  0  0
   -0.7670   13.7870   -7.4374 C   0  0  0  0  0  0  0  0  0  0  0  0
    0.2540   13.4869   -6.2984 C   0  0  0  0  0  0  0  0  0  0  0  0
   -0.1438   14.3476   -5.0734 C   0  0  0  0  0  0  0  0  0  0  0  0
    1.6710   13.9365   -6.7044 C   0  0  0  0  0  0  0  0  0  0  0  0
    0.3149   11.9964   -5.8918 C   0  0  0  0  0  0  0  0  0  0  0  0
   -0.8292   11.6144   -5.1146 O   0  0  0  0  0  0  0  0  0  0  0  0
   -0.8230   10.2954   -4.7520 C   0  0  0  0  0  0  0  0  0  0  0  0
   -1.8925   10.0351   -3.6856 C   0  0  1  0  0  0  0  0  0  0  0  0
   -2.4637    8.6887   -3.8736 N   0  0  0  0  0  0  0  0  0  0  0  0
   -3.3964    8.3695   -2.8609 N   0  0  0  0  0  0  0  0  0  0  0  0
   -4.7288    8.0036   -3.0827 C   0  0  0  0  0  0  0  0  0  0  0  0
   -5.3551    8.3925   -4.4399 C   0  0  1  0  0  0  0  0  0  0  0  0
   -6.4987    7.5324   -4.7245 N   0  0  0  0  0  0  0  0  0  0  0  0
   -6.3130    6.2769   -5.2710 C   0  0  0  0  0  0  0  0  0  0  0  0
   -7.5920    5.4095   -5.2994 C   0  0  2  0  0  0  0  0  0  0  0  0
   -7.2790    3.9143   -5.0316 C   0  0  0  0  0  0  0  0  0  0  0  0
   -8.5311    3.0437   -5.1913 C   0  0  0  0  0  0  0  0  0  0  0  0
   -6.7212    3.7252   -3.6134 C   0  0  0  0  0  0  0  0  0  0  0  0
   -8.2888    5.6640   -6.5863 N   0  0  0  0  0  0  0  0  0  0  0  0
   -9.2032    6.7284   -6.6018 C   0  0  0  0  0  0  0  0  0  0  0  0
   -9.9896    7.0099   -7.9064 C   0  0  0  0  0  0  0  0  0  0  0  0
  -10.6810    8.3741   -7.8343 C   0  0  0  0  0  0  0  0  0  0  0  0
  -11.5363    8.6219   -9.0695 C   0  0  0  0  0  0  0  0  0  0  0  0
  -12.4628    7.5189   -9.3116 N   0  0  0  0  0  0  0  0  0  0  0  0
  -13.7043    7.6943   -9.9242 C   0  0  0  0  0  0  0  0  0  0  0  0
  -14.2372    9.0341  -10.0510 C   0  0  0  0  0  0  0  0  0  0  0  0
  -14.7043   10.1395  -10.1394 C   0  0  0  0  0  0  0  0  0  0  0  0
  -15.3050   11.4978  -10.2328 C   0  0  0  0  0  0  0  0  0  0  0  0
  -15.1628   12.1674   -8.9102 N   0  0  0  0  0  0  0  0  0  0  0  0
  -15.9531   11.5415   -7.8417 C   0  0  0  0  0  0  0  0  0  0  0  0
  -15.4369   13.6062   -8.9229 C   0  0  0  0  0  0  0  0  0  0  0  0
  -16.7680   11.3546  -10.7058 C   0  0  0  0  0  0  0  0  0  0  0  0
  -14.5151   12.2484  -11.3341 C   0  0  0  0  0  0  0  0  0  0  0  0
  -14.3879    6.7709  -10.3535 O   0  0  0  0  0  0  0  0  0  0  0  0
  -11.8763    6.1869   -9.3513 C   0  0  0  0  0  0  0  0  0  0  0  0
  -11.0291    5.9063   -8.1196 C   0  0  0  0  0  0  0  0  0  0  0  0
   -9.4380    7.3770   -5.5754 O   0  0  0  0  0  0  0  0  0  0  0  0
   -7.6129    5.2428   -7.8132 C   0  0  0  0  0  0  0  0  0  0  0  0
   -5.2488    5.9309   -5.7778 O   0  0  0  0  0  0  0  0  0  0  0  0
   -5.8084    9.8569   -4.3484 C   0  0  0  0  0  0  0  0  0  0  0  0
   -5.3926   10.7060   -5.5499 C   0  0  1  0  0  0  0  0  0  0  0  0
   -5.9335   10.1643   -6.8976 C   0  0  0  0  0  0  0  0  0  0  0  0
   -5.7910   11.1806   -7.9611 N   0  0  0  0  0  0  0  0  0  0  0  0
   -6.3546   12.5031   -7.5999 C   0  0  0  0  0  0  0  0  0  0  0  0
   -6.8122   12.5529   -6.1332 C   0  0  0  0  0  0  0  0  0  0  0  0
   -5.7930   12.0671   -5.2517 O   0  0  0  0  0  0  0  0  0  0  0  0
   -5.4358    7.5112   -2.1924 O   0  0  0  0  0  0  0  0  0  0  0  0
   -2.8125    8.2979   -1.5210 C   0  0  0  0  0  0  0  0  0  0  0  0
   -2.1745    9.6479   -1.1842 C   0  0  0  0  0  0  0  0  0  0  0  0
   -1.2291   10.1112   -2.2996 C   0  0  0  0  0  0  0  0  0  0  0  0
   -0.0315    9.4602   -5.1716 O   0  0  0  0  0  0  0  0  0  0  0  0
   -2.1920   12.0101   -8.7158 C   0  0  0  0  0  0  0  0  0  0  0  0
   -2.0139   11.1649   -9.8064 C   0  0  0  0  0  0  0  0  0  0  0  0
   -3.0173   10.2832  -10.2390 C   0  0  0  0  0  0  0  0  0  0  0  0
   -4.2511   10.3134   -9.5848 C   0  0  0  0  0  0  0  0  0  0  0  0
   -4.5008   11.1826   -8.5244 C   0  0  0  0  0  0  0  0  0  0  0  0
   -3.4504   12.0000   -8.0648 C   0  0  0  0  0  0  0  0  0  0  0  0
   -9.1592    7.0454   -8.9970 F   0  0  0  0  0  0  0  0  0  0  0  0
    0.8446   16.5038  -12.4558 H   0  0  0  0  0  0  0  0  0  0  0  0
    0.3187   14.9531  -13.1565 H   0  0  0  0  0  0  0  0  0  0  0  0
   -0.8648   16.1786  -12.6827 H   0  0  0  0  0  0  0  0  0  0  0  0
   -0.8967   14.4902  -10.9581 H   0  0  0  0  0  0  0  0  0  0  0  0
   -2.1139   15.9456   -9.6511 H   0  0  0  0  0  0  0  0  0  0  0  0
   -1.3636   17.4558   -9.0989 H   0  0  0  0  0  0  0  0  0  0  0  0
   -1.6668   17.2257  -10.8277 H   0  0  0  0  0  0  0  0  0  0  0  0
    4.4692   14.4529  -11.2676 H   0  0  0  0  0  0  0  0  0  0  0  0
    4.4571   12.2340  -10.1225 H   0  0  0  0  0  0  0  0  0  0  0  0
    2.2887   11.3286   -9.3200 H   0  0  0  0  0  0  0  0  0  0  0  0
   -1.0138   10.6394  -12.2104 H   0  0  0  0  0  0  0  0  0  0  0  0
    0.5664   11.3409  -11.9290 H   0  0  0  0  0  0  0  0  0  0  0  0
    1.1607    9.4113  -10.4062 H   0  0  0  0  0  0  0  0  0  0  0  0
   -0.4265    8.6966  -10.7037 H   0  0  0  0  0  0  0  0  0  0  0  0
    0.7303    8.8593  -12.0341 H   0  0  0  0  0  0  0  0  0  0  0  0
   -0.5090   14.7428   -7.9057 H   0  0  0  0  0  0  0  0  0  0  0  0
   -1.7472   13.9714   -6.9756 H   0  0  0  0  0  0  0  0  0  0  0  0
    0.5349   14.1734   -4.2305 H   0  0  0  0  0  0  0  0  0  0  0  0
   -0.1091   15.4169   -5.3154 H   0  0  0  0  0  0  0  0  0  0  0  0
   -1.1600   14.1219   -4.7308 H   0  0  0  0  0  0  0  0  0  0  0  0
    2.3441   13.9463   -5.8375 H   0  0  0  0  0  0  0  0  0  0  0  0
    2.1165   13.2565   -7.4274 H   0  0  0  0  0  0  0  0  0  0  0  0
    1.6716   14.9471   -7.1277 H   0  0  0  0  0  0  0  0  0  0  0  0
    0.4120   11.3482   -6.7695 H   0  0  0  0  0  0  0  0  0  0  0  0
    1.2023   11.8328   -5.2652 H   0  0  0  0  0  0  0  0  0  0  0  0
   -2.6871   10.7846   -3.7818 H   0  0  0  0  0  0  0  0  0  0  0  0
   -2.7708    8.5176   -4.8291 H   0  0  0  0  0  0  0  0  0  0  0  0
   -4.6284    8.2391   -5.2377 H   0  0  0  0  0  0  0  0  0  0  0  0
   -7.3249    7.6510   -4.1474 H   0  0  0  0  0  0  0  0  0  0  0  0
   -8.2439    5.7407   -4.4805 H   0  0  0  0  0  0  0  0  0  0  0  0
   -6.5155    3.5482   -5.7277 H   0  0  0  0  0  0  0  0  0  0  0  0
   -9.3360    3.3826   -4.5276 H   0  0  0  0  0  0  0  0  0  0  0  0
   -8.9079    3.0662   -6.2193 H   0  0  0  0  0  0  0  0  0  0  0  0
   -8.3132    1.9975   -4.9464 H   0  0  0  0  0  0  0  0  0  0  0  0
   -7.4365    4.0661   -2.8563 H   0  0  0  0  0  0  0  0  0  0  0  0
   -6.5045    2.6692   -3.4195 H   0  0  0  0  0  0  0  0  0  0  0  0
   -5.7890    4.2825   -3.4730 H   0  0  0  0  0  0  0  0  0  0  0  0
  -11.3167    8.4338   -6.9417 H   0  0  0  0  0  0  0  0  0  0  0  0
   -9.9316    9.1699   -7.7509 H   0  0  0  0  0  0  0  0  0  0  0  0
  -12.0712    9.5677   -8.9466 H   0  0  0  0  0  0  0  0  0  0  0  0
  -10.9083    8.7191   -9.9634 H   0  0  0  0  0  0  0  0  0  0  0  0
  -15.6688   11.9639   -6.8708 H   0  0  0  0  0  0  0  0  0  0  0  0
  -17.0294   11.6995   -7.9700 H   0  0  0  0  0  0  0  0  0  0  0  0
  -15.7664   10.4666   -7.7643 H   0  0  0  0  0  0  0  0  0  0  0  0
  -15.3226   14.0288   -7.9170 H   0  0  0  0  0  0  0  0  0  0  0  0
  -14.7180   14.1489   -9.5452 H   0  0  0  0  0  0  0  0  0  0  0  0
  -16.4496   13.8389   -9.2674 H   0  0  0  0  0  0  0  0  0  0  0  0
  -17.3569   10.7104  -10.0425 H   0  0  0  0  0  0  0  0  0  0  0  0
  -17.2712   12.3254  -10.7739 H   0  0  0  0  0  0  0  0  0  0  0  0
  -16.8129   10.8958  -11.7018 H   0  0  0  0  0  0  0  0  0  0  0  0
  -13.4706   12.4051  -11.0406 H   0  0  0  0  0  0  0  0  0  0  0  0
  -14.5019   11.6745  -12.2690 H   0  0  0  0  0  0  0  0  0  0  0  0
  -14.9573   13.2228  -11.5663 H   0  0  0  0  0  0  0  0  0  0  0  0
  -12.6578    5.4231   -9.4285 H   0  0  0  0  0  0  0  0  0  0  0  0
  -11.2690    6.1191  -10.2632 H   0  0  0  0  0  0  0  0  0  0  0  0
  -10.5532    4.9271   -8.2360 H   0  0  0  0  0  0  0  0  0  0  0  0
  -11.6769    5.8384   -7.2353 H   0  0  0  0  0  0  0  0  0  0  0  0
   -7.0077    4.3494   -7.6477 H   0  0  0  0  0  0  0  0  0  0  0  0
   -8.3409    4.9959   -8.5869 H   0  0  0  0  0  0  0  0  0  0  0  0
   -6.9729    6.0570   -8.1652 H   0  0  0  0  0  0  0  0  0  0  0  0
   -6.8978    9.9250   -4.2249 H   0  0  0  0  0  0  0  0  0  0  0  0
   -5.4013   10.3388   -3.4484 H   0  0  0  0  0  0  0  0  0  0  0  0
   -4.2968   10.7278   -5.5915 H   0  0  0  0  0  0  0  0  0  0  0  0
   -5.4478    9.2222   -7.1747 H   0  0  0  0  0  0  0  0  0  0  0  0
   -7.0022    9.9327   -6.8046 H   0  0  0  0  0  0  0  0  0  0  0  0
   -5.6476   13.3221   -7.7799 H   0  0  0  0  0  0  0  0  0  0  0  0
   -7.2166   12.6991   -8.2509 H   0  0  0  0  0  0  0  0  0  0  0  0
   -7.0364   13.5872   -5.8508 H   0  0  0  0  0  0  0  0  0  0  0  0
   -7.7283   11.9701   -5.9758 H   0  0  0  0  0  0  0  0  0  0  0  0
   -3.5705    8.0462   -0.7718 H   0  0  0  0  0  0  0  0  0  0  0  0
   -2.0605    7.4990   -1.5203 H   0  0  0  0  0  0  0  0  0  0  0  0
   -2.9648   10.3984   -1.0582 H   0  0  0  0  0  0  0  0  0  0  0  0
   -1.6328    9.5831   -0.2345 H   0  0  0  0  0  0  0  0  0  0  0  0
   -0.3254    9.4864   -2.2803 H   0  0  0  0  0  0  0  0  0  0  0  0
   -0.8985   11.1372   -2.0989 H   0  0  0  0  0  0  0  0  0  0  0  0
   -2.8679    9.6121  -11.0778 H   0  0  0  0  0  0  0  0  0  0  0  0
   -5.0471    9.6596   -9.9345 H   0  0  0  0  0  0  0  0  0  0  0  0
   -3.6011   12.6514   -7.2096 H   0  0  0  0  0  0  0  0  0  0  0  0
  1  2  1  0
  2  3  1  0
  2  5  1  0
  3  4  1  0
  5  6  2  0
  5 10  1  0
  6  7  1  0
  7  8  2  0
  8  9  1  0
  9 10  2  0
 10 11  1  0
 11 12  1  0
 11 15  2  0
 12 13  1  0
 12 68  1  0
 13 14  1  0
 15 16  1  0
 15 67  1  0
 16 17  1  0
 17 18  1  0
 17 19  1  0
 17 20  1  0
 20 21  1  0
 21 22  1  0
 22 23  1  0
 22 66  2  0
 23 24  1  0
 23 65  1  0
 24 25  1  0
 25 26  1  0
 25 63  1  0
 26 27  1  0
 26 62  2  0
 27 28  1  0
 27 55  1  0
 28 29  1  0
 29 30  1  0
 29 54  2  0
 30 31  1  0
 30 34  1  0
 31 32  1  0
 31 33  1  0
 34 35  1  0
 34 53  1  0
 35 36  1  0
 35 52  2  0
 36 37  1  0
 36 51  1  0
 36 73  1  0
 37 38  1  0
 38 39  1  0
 39 40  1  0
 39 50  1  0
 40 41  1  0
 40 49  2  0
 42 43  1  0
 43 44  1  0
 43 47  1  0
 43 48  1  0
 44 45  1  0
 44 46  1  0
 50 51  1  0
 55 56  1  0
 56 57  1  0
 56 61  1  0
 57 58  1  0
 58 59  1  0
 58 71  1  0
 59 60  1  0
 60 61  1  0
 63 64  1  0
 64 65  1  0
 67 68  2  0
 67 72  1  0
 68 69  1  0
 69 70  2  0
 70 71  1  0
 71 72  2  0
 41 42  3  0
  1 74  1  0
  1 75  1  0
  1 76  1  0
  2 77  1  6
  4 78  1  0
  4 79  1  0
  4 80  1  0
  7 81  1  0
  8 82  1  0
  9 83  1  0
 13 84  1  0
 13 85  1  0
 14 86  1  0
 14 87  1  0
 14 88  1  0
 16 89  1  0
 16 90  1  0
 18 91  1  0
 18 92  1  0
 18 93  1  0
 19 94  1  0
 19 95  1  0
 19 96  1  0
 20 97  1  0
 20 98  1  0
 23 99  1  1
 24100  1  0
 27101  1  6
 28102  1  0
 30103  1  1
 31104  1  0
 32105  1  0
 32106  1  0
 32107  1  0
 33108  1  0
 33109  1  0
 33110  1  0
 37111  1  0
 37112  1  0
 38113  1  0
 38114  1  0
 45115  1  0
 45116  1  0
 45117  1  0
 46118  1  0
 46119  1  0
 46120  1  0
 47121  1  0
 47122  1  0
 47123  1  0
 48124  1  0
 48125  1  0
 48126  1  0
 50127  1  0
 50128  1  0
 51129  1  0
 51130  1  0
 53131  1  0
 53132  1  0
 53133  1  0
 55134  1  0
 55135  1  0
 56136  1  6
 57137  1  0
 57138  1  0
 59139  1  0
 59140  1  0
 60141  1  0
 60142  1  0
 63143  1  0
 63144  1  0
 64145  1  0
 64146  1  0
 65147  1  0
 65148  1  0
 69149  1  0
 70150  1  0
 72151  1  0
M  END
$$$$
