mol_bioactive_48
     RDKit          3D

151157  0  0  0  0  0  0  0  0999 V2000
   -0.6759   -6.2796   -1.6243 C   0  0  0  0  0  0  0  0  0  0  0  0
   -1.8833   -5.3668   -1.8270 C   0  0  2  0  0  0  0  0  0  0  0  0
   -2.9796   -5.8926   -1.0578 O   0  0  0  0  0  0  0  0  0  0  0  0
   -3.2062   -5.1733    0.1446 C   0  0  0  0  0  0  0  0  0  0  0  0
   -2.2963   -5.3131   -3.2928 C   0  0  0  0  0  0  0  0  0  0  0  0
   -2.6597   -6.5034   -3.8610 N   0  0  0  0  0  0  0  0  0  0  0  0
   -3.1164   -6.4931   -5.1295 C   0  0  0  0  0  0  0  0  0  0  0  0
   -3.2312   -5.3483   -5.8911 C   0  0  0  0  0  0  0  0  0  0  0  0
   -2.8388   -4.1435   -5.3197 C   0  0  0  0  0  0  0  0  0  0  0  0
   -2.3456   -4.1056   -4.0090 C   0  0  0  0  0  0  0  0  0  0  0  0
   -1.9059   -2.8171   -3.4590 C   0  0  0  0  0  0  0  0  0  0  0  0
   -2.7768   -1.8943   -2.8982 N   0  0  0  0  0  0  0  0  0  0  0  0
   -4.2205   -2.0540   -2.7676 C   0  0  0  0  0  0  0  0  0  0  0  0
   -4.9824   -1.3761   -3.8950 C   0  0  0  0  0  0  0  0  0  0  0  0
   -0.6156   -2.2933   -3.3585 C   0  0  0  0  0  0  0  0  0  0  0  0
    0.6910   -2.9305   -3.7855 C   0  0  0  0  0  0  0  0  0  0  0  0
    1.2424   -2.5871   -5.2018 C   0  0  0  0  0  0  0  0  0  0  0  0
    0.2174   -2.9507   -6.2913 C   0  0  0  0  0  0  0  0  0  0  0  0
    2.4929   -3.4658   -5.4317 C   0  0  0  0  0  0  0  0  0  0  0  0
    1.6089   -1.0904   -5.3757 C   0  0  0  0  0  0  0  0  0  0  0  0
    2.8331   -0.7086   -4.7070 O   0  0  0  0  0  0  0  0  0  0  0  0
    3.8949   -0.4422   -5.5376 C   0  0  0  0  0  0  0  0  0  0  0  0
    5.0613    0.1936   -4.7673 C   0  0  1  0  0  0  0  0  0  0  0  0
    5.4415   -0.6312   -3.6069 N   0  0  0  0  0  0  0  0  0  0  0  0
    6.5172   -0.0361   -2.8915 N   0  0  0  0  0  0  0  0  0  0  0  0
    6.4105    0.6596   -1.6803 C   0  0  0  0  0  0  0  0  0  0  0  0
    5.0026    0.9161   -1.1129 C   0  0  1  0  0  0  0  0  0  0  0  0
    4.9586    0.5440    0.2914 N   0  0  0  0  0  0  0  0  0  0  0  0
    4.5570   -0.7154    0.6825 C   0  0  0  0  0  0  0  0  0  0  0  0
    4.5963   -0.9687    2.2126 C   0  0  2  0  0  0  0  0  0  0  0  0
    5.9001   -1.6927    2.6419 C   0  0  0  0  0  0  0  0  0  0  0  0
    5.9722   -1.8129    4.1705 C   0  0  0  0  0  0  0  0  0  0  0  0
    7.1609   -0.9654    2.1540 C   0  0  0  0  0  0  0  0  0  0  0  0
    3.3286   -1.6572    2.5926 N   0  0  0  0  0  0  0  0  0  0  0  0
    2.2242   -0.8261    2.8076 C   0  0  0  0  0  0  0  0  0  0  0  0
    0.7951   -1.4195    2.9051 C   0  0  0  0  0  0  0  0  0  0  0  0
    0.3056   -1.8642    1.5210 C   0  0  0  0  0  0  0  0  0  0  0  0
   -1.1596   -2.2846    1.5487 C   0  0  0  0  0  0  0  0  0  0  0  0
   -1.9893   -1.2541    2.1500 N   0  0  0  0  0  0  0  0  0  0  0  0
   -3.2453   -0.9991    1.6116 C   0  0  0  0  0  0  0  0  0  0  0  0
   -3.9872    0.1334    2.1208 C   0  0  0  0  0  0  0  0  0  0  0  0
   -4.5663    1.1169    2.4996 C   0  0  0  0  0  0  0  0  0  0  0  0
   -5.2439    2.3696    2.9295 C   0  0  0  0  0  0  0  0  0  0  0  0
   -6.0169    2.1095    4.1727 N   0  0  0  0  0  0  0  0  0  0  0  0
   -5.1934    1.7113    5.3186 C   0  0  0  0  0  0  0  0  0  0  0  0
   -6.9063    3.2004    4.5771 C   0  0  0  0  0  0  0  0  0  0  0  0
   -4.1702    3.4704    3.0805 C   0  0  0  0  0  0  0  0  0  0  0  0
   -6.1794    2.7735    1.7630 C   0  0  0  0  0  0  0  0  0  0  0  0
   -3.7452   -1.6453    0.6985 O   0  0  0  0  0  0  0  0  0  0  0  0
   -1.5931   -0.8258    3.4854 C   0  0  0  0  0  0  0  0  0  0  0  0
   -0.1488   -0.3582    3.4947 C   0  0  0  0  0  0  0  0  0  0  0  0
    2.3768    0.4017    2.8712 O   0  0  0  0  0  0  0  0  0  0  0  0
    3.2341   -3.1021    2.3789 C   0  0  0  0  0  0  0  0  0  0  0  0
    4.1951   -1.5610   -0.1363 O   0  0  0  0  0  0  0  0  0  0  0  0
    4.6318    2.3971   -1.3327 C   0  0  0  0  0  0  0  0  0  0  0  0
    3.1826    2.7693   -0.9617 C   0  0  1  0  0  0  0  0  0  0  0  0
    2.1777    1.7227   -1.4666 C   0  0  0  0  0  0  0  0  0  0  0  0
    0.7865    2.0403   -1.0869 N   0  0  0  0  0  0  0  0  0  0  0  0
    0.6860    2.2948    0.3755 C   0  0  0  0  0  0  0  0  0  0  0  0
    1.7513    3.3095    0.8317 C   0  0  0  0  0  0  0  0  0  0  0  0
    3.0853    2.9142    0.4651 O   0  0  0  0  0  0  0  0  0  0  0  0
    7.3997    1.1137   -1.0926 O   0  0  0  0  0  0  0  0  0  0  0  0
    7.7661    0.0011   -3.6527 C   0  0  0  0  0  0  0  0  0  0  0  0
    7.5350    0.8344   -4.9147 C   0  0  0  0  0  0  0  0  0  0  0  0
    6.2983    0.3410   -5.6802 C   0  0  0  0  0  0  0  0  0  0  0  0
    3.8875   -0.6104   -6.7514 O   0  0  0  0  0  0  0  0  0  0  0  0
   -0.7350   -1.0444   -2.6681 C   0  0  0  0  0  0  0  0  0  0  0  0
   -2.0785   -0.8047   -2.4147 C   0  0  0  0  0  0  0  0  0  0  0  0
   -2.5037    0.3665   -1.7667 C   0  0  0  0  0  0  0  0  0  0  0  0
   -1.5329    1.2934   -1.3491 C   0  0  0  0  0  0  0  0  0  0  0  0
   -0.1639    1.0818   -1.5410 C   0  0  0  0  0  0  0  0  0  0  0  0
    0.2076   -0.0946   -2.2220 C   0  0  0  0  0  0  0  0  0  0  0  0
    0.7438   -2.4955    3.7528 F   0  0  0  0  0  0  0  0  0  0  0  0
   -0.3770   -6.2868   -0.5705 H   0  0  0  0  0  0  0  0  0  0  0  0
   -0.9093   -7.3177   -1.8869 H   0  0  0  0  0  0  0  0  0  0  0  0
    0.1797   -5.9562   -2.2239 H   0  0  0  0  0  0  0  0  0  0  0  0
   -1.6204   -4.3689   -1.4610 H   0  0  0  0  0  0  0  0  0  0  0  0
   -2.3081   -5.1698    0.7689 H   0  0  0  0  0  0  0  0  0  0  0  0
   -3.5176   -4.1508   -0.0825 H   0  0  0  0  0  0  0  0  0  0  0  0
   -4.0099   -5.6674    0.6954 H   0  0  0  0  0  0  0  0  0  0  0  0
   -3.4017   -7.4628   -5.5253 H   0  0  0  0  0  0  0  0  0  0  0  0
   -3.6100   -5.3909   -6.9055 H   0  0  0  0  0  0  0  0  0  0  0  0
   -2.9086   -3.2302   -5.9049 H   0  0  0  0  0  0  0  0  0  0  0  0
   -4.4552   -3.1221   -2.7288 H   0  0  0  0  0  0  0  0  0  0  0  0
   -4.5197   -1.6332   -1.8034 H   0  0  0  0  0  0  0  0  0  0  0  0
   -4.7642   -0.3037   -3.9347 H   0  0  0  0  0  0  0  0  0  0  0  0
   -4.7193   -1.8024   -4.8675 H   0  0  0  0  0  0  0  0  0  0  0  0
   -6.0600   -1.4985   -3.7498 H   0  0  0  0  0  0  0  0  0  0  0  0
    1.4554   -2.6826   -3.0362 H   0  0  0  0  0  0  0  0  0  0  0  0
    0.5684   -4.0190   -3.7120 H   0  0  0  0  0  0  0  0  0  0  0  0
   -0.0900   -3.9982   -6.2105 H   0  0  0  0  0  0  0  0  0  0  0  0
   -0.6693   -2.3131   -6.2350 H   0  0  0  0  0  0  0  0  0  0  0  0
    0.6427   -2.8185   -7.2933 H   0  0  0  0  0  0  0  0  0  0  0  0
    3.2629   -3.2798   -4.6747 H   0  0  0  0  0  0  0  0  0  0  0  0
    2.2407   -4.5314   -5.3831 H   0  0  0  0  0  0  0  0  0  0  0  0
    2.9340   -3.2793   -6.4167 H   0  0  0  0  0  0  0  0  0  0  0  0
    1.6563   -0.8398   -6.4433 H   0  0  0  0  0  0  0  0  0  0  0  0
    0.8172   -0.4466   -4.9836 H   0  0  0  0  0  0  0  0  0  0  0  0
    4.7250    1.1850   -4.4391 H   0  0  0  0  0  0  0  0  0  0  0  0
    4.6518   -0.9142   -3.0249 H   0  0  0  0  0  0  0  0  0  0  0  0
    4.2899    0.2918   -1.6411 H   0  0  0  0  0  0  0  0  0  0  0  0
    5.3432    1.1922    0.9697 H   0  0  0  0  0  0  0  0  0  0  0  0
    4.6047    0.0144    2.7017 H   0  0  0  0  0  0  0  0  0  0  0  0
    5.9300   -2.6992    2.2081 H   0  0  0  0  0  0  0  0  0  0  0  0
    5.1100   -2.3475    4.5799 H   0  0  0  0  0  0  0  0  0  0  0  0
    6.8714   -2.3608    4.4736 H   0  0  0  0  0  0  0  0  0  0  0  0
    6.0083   -0.8238    4.6413 H   0  0  0  0  0  0  0  0  0  0  0  0
    8.0629   -1.4496    2.5428 H   0  0  0  0  0  0  0  0  0  0  0  0
    7.2337   -0.9862    1.0632 H   0  0  0  0  0  0  0  0  0  0  0  0
    7.1702    0.0787    2.4826 H   0  0  0  0  0  0  0  0  0  0  0  0
    0.4343   -1.0434    0.8060 H   0  0  0  0  0  0  0  0  0  0  0  0
    0.8918   -2.7055    1.1409 H   0  0  0  0  0  0  0  0  0  0  0  0
   -1.4915   -2.4977    0.5276 H   0  0  0  0  0  0  0  0  0  0  0  0
   -1.2899   -3.2011    2.1348 H   0  0  0  0  0  0  0  0  0  0  0  0
   -5.8315    1.4362    6.1677 H   0  0  0  0  0  0  0  0  0  0  0  0
   -4.5938    0.8204    5.1025 H   0  0  0  0  0  0  0  0  0  0  0  0
   -4.5245    2.5111    5.6555 H   0  0  0  0  0  0  0  0  0  0  0  0
   -7.4701    2.9211    5.4757 H   0  0  0  0  0  0  0  0  0  0  0  0
   -6.3633    4.1249    4.8010 H   0  0  0  0  0  0  0  0  0  0  0  0
   -7.6658    3.4106    3.8178 H   0  0  0  0  0  0  0  0  0  0  0  0
   -3.4011    3.2010    3.8133 H   0  0  0  0  0  0  0  0  0  0  0  0
   -3.6450    3.6372    2.1310 H   0  0  0  0  0  0  0  0  0  0  0  0
   -4.6061    4.4292    3.3789 H   0  0  0  0  0  0  0  0  0  0  0  0
   -6.6257    3.7628    1.9129 H   0  0  0  0  0  0  0  0  0  0  0  0
   -5.6303    2.8175    0.8129 H   0  0  0  0  0  0  0  0  0  0  0  0
   -6.9899    2.0460    1.6286 H   0  0  0  0  0  0  0  0  0  0  0  0
   -2.2364   -0.0269    3.8626 H   0  0  0  0  0  0  0  0  0  0  0  0
   -1.7276   -1.6824    4.1561 H   0  0  0  0  0  0  0  0  0  0  0  0
    0.1453   -0.1313    4.5262 H   0  0  0  0  0  0  0  0  0  0  0  0
   -0.0847    0.5771    2.9261 H   0  0  0  0  0  0  0  0  0  0  0  0
    4.0682   -3.6100    2.8653 H   0  0  0  0  0  0  0  0  0  0  0  0
    2.3239   -3.5250    2.7981 H   0  0  0  0  0  0  0  0  0  0  0  0
    3.2488   -3.3170    1.3088 H   0  0  0  0  0  0  0  0  0  0  0  0
    5.3232    3.0340   -0.7661 H   0  0  0  0  0  0  0  0  0  0  0  0
    4.7824    2.6352   -2.3929 H   0  0  0  0  0  0  0  0  0  0  0  0
    2.9596    3.7479   -1.4068 H   0  0  0  0  0  0  0  0  0  0  0  0
    2.2727    1.6534   -2.5575 H   0  0  0  0  0  0  0  0  0  0  0  0
    2.4168    0.7605   -1.0027 H   0  0  0  0  0  0  0  0  0  0  0  0
   -0.2996    2.6852    0.6489 H   0  0  0  0  0  0  0  0  0  0  0  0
    0.8466    1.3516    0.9066 H   0  0  0  0  0  0  0  0  0  0  0  0
    1.5489    4.3008    0.4094 H   0  0  0  0  0  0  0  0  0  0  0  0
    1.7246    3.4034    1.9221 H   0  0  0  0  0  0  0  0  0  0  0  0
    8.5806    0.4309   -3.0622 H   0  0  0  0  0  0  0  0  0  0  0  0
    8.0405   -1.0288   -3.9091 H   0  0  0  0  0  0  0  0  0  0  0  0
    7.3792    1.8838   -4.6332 H   0  0  0  0  0  0  0  0  0  0  0  0
    8.4181    0.7978   -5.5613 H   0  0  0  0  0  0  0  0  0  0  0  0
    6.5344   -0.6239   -6.1483 H   0  0  0  0  0  0  0  0  0  0  0  0
    6.0767    1.0369   -6.4984 H   0  0  0  0  0  0  0  0  0  0  0  0
   -3.5557    0.5586   -1.5784 H   0  0  0  0  0  0  0  0  0  0  0  0
   -1.8792    2.2066   -0.8721 H   0  0  0  0  0  0  0  0  0  0  0  0
    1.2442   -0.3350   -2.4183 H   0  0  0  0  0  0  0  0  0  0  0  0
  1  2  1  0
  2  3  1  0
  2  5  1  0
  3  4  1  0
  5  6  2  0
  5 10  1  0
  6  7  1  0
  7  8  2  0
  8  9  1  0
  9 10  2  0
 10 11  1  0
 11 12  1  0
 11 15  2  0
 12 13  1  0
 12 68  1  0
 13 14  1  0
 15 16  1  0
 15 67  1  0
 16 17  1  0
 17 18  1  0
 17 19  1  0
 17 20  1  0
 20 21  1  0
 21 22  1  0
 22 23  1  0
 22 66  2  0
 23 24  1  0
 23 65  1  0
 24 25  1  0
 25 26  1  0
 25 63  1  0
 26 27  1  0
 26 62  2  0
 27 28  1  0
 27 55  1  0
 28 29  1  0
 29 30  1  0
 29 54  2  0
 30 31  1  0
 30 34  1  0
 31 32  1  0
 31 33  1  0
 34 35  1  0
 34 53  1  0
 35 36  1  0
 35 52  2  0
 36 37  1  0
 36 51  1  0
 36 73  1  0
 37 38  1  0
 38 39  1  0
 39 40  1  0
 39 50  1  0
 40 41  1  0
 40 49  2  0
 42 43  1  0
 43 44  1  0
 43 47  1  0
 43 48  1  0
 44 45  1  0
 44 46  1  0
 50 51  1  0
 55 56  1  0
 56 57  1  0
 56 61  1  0
 57 58  1  0
 58 59  1  0
 58 71  1  0
 59 60  1  0
 60 61  1  0
 63 64  1  0
 64 65  1  0
 67 68  2  0
 67 72  1  0
 68 69  1  0
 69 70  2  0
 70 71  1  0
 71 72  2  0
 41 42  3  0
  1 74  1  0
  1 75  1  0
  1 76  1  0
  2 77  1  1
  4 78  1  0
  4 79  1  0
  4 80  1  0
  7 81  1  0
  8 82  1  0
  9 83  1  0
 13 84  1  0
 13 85  1  0
 14 86  1  0
 14 87  1  0
 14 88  1  0
 16 89  1  0
 16 90  1  0
 18 91  1  0
 18 92  1  0
 18 93  1  0
 19 94  1  0
 19 95  1  0
 19 96  1  0
 20 97  1  0
 20 98  1  0
 23 99  1  1
 24100  1  0
 27101  1  6
 28102  1  0
 30103  1  1
 31104  1  0
 32105  1  0
 32106  1  0
 32107  1  0
 33108  1  0
 33109  1  0
 33110  1  0
 37111  1  0
 37112  1  0
 38113  1  0
 38114  1  0
 45115  1  0
 45116  1  0
 45117  1  0
 46118  1  0
 46119  1  0
 46120  1  0
 47121  1  0
 47122  1  0
 47123  1  0
 48124  1  0
 48125  1  0
 48126  1  0
 50127  1  0
 50128  1  0
 51129  1  0
 51130  1  0
 53131  1  0
 53132  1  0
 53133  1  0
 55134  1  0
 55135  1  0
 56136  1  6
 57137  1  0
 57138  1  0
 59139  1  0
 59140  1  0
 60141  1  0
 60142  1  0
 63143  1  0
 63144  1  0
 64145  1  0
 64146  1  0
 65147  1  0
 65148  1  0
 69149  1  0
 70150  1  0
 72151  1  0
M  END
$$$$
