 energy: -221.264410298213 gnorm: 0.000635444612 xtb: 6.7.1 (edcfbbe)
          08182521293D

151157  0     0  0            999 V2000
    0.4740   15.4215  -12.4576 C   0  0  0  0  0  0  0  0  0  0  0  0
    0.1548   14.9133  -11.0509 C   0  0  0  0  0  0  0  0  0  0  0  0
   -0.1745   15.9579  -10.1465 O   0  0  0  0  0  0  0  0  0  0  0  0
   -1.4200   16.5629  -10.3829 C   0  0  0  0  0  0  0  0  0  0  0  0
    1.3597   14.2043  -10.4654 C   0  0  0  0  0  0  0  0  0  0  0  0
    2.5409   14.7372  -10.7314 N   0  0  0  0  0  0  0  0  0  0  0  0
    3.6329   14.1621  -10.2666 C   0  0  0  0  0  0  0  0  0  0  0  0
    3.6148   12.9973   -9.5146 C   0  0  0  0  0  0  0  0  0  0  0  0
    2.3850   12.4320   -9.2300 C   0  0  0  0  0  0  0  0  0  0  0  0
    1.2206   13.0413   -9.6960 C   0  0  0  0  0  0  0  0  0  0  0  0
   -0.0923   12.4469   -9.4162 C   0  0  0  0  0  0  0  0  0  0  0  0
   -0.4884   11.3170  -10.1013 N   0  0  0  0  0  0  0  0  0  0  0  0
    0.2708   10.6037  -11.0930 C   0  0  0  0  0  0  0  0  0  0  0  0
    0.8845    9.3208  -10.5329 C   0  0  0  0  0  0  0  0  0  0  0  0
   -1.0858   12.8535   -8.5564 C   0  0  0  0  0  0  0  0  0  0  0  0
   -1.1206   14.0220   -7.6221 C   0  0  0  0  0  0  0  0  0  0  0  0
   -0.1698   13.9949   -6.3950 C   0  0  0  0  0  0  0  0  0  0  0  0
   -0.8157   14.7980   -5.2617 C   0  0  0  0  0  0  0  0  0  0  0  0
    1.1677   14.6547   -6.7478 C   0  0  0  0  0  0  0  0  0  0  0  0
    0.1351   12.5662   -5.9094 C   0  0  0  0  0  0  0  0  0  0  0  0
   -0.8126   12.0807   -4.9522 O   0  0  0  0  0  0  0  0  0  0  0  0
   -1.2813   10.8537   -5.1013 C   0  0  0  0  0  0  0  0  0  0  0  0
   -2.1223   10.4272   -3.8995 C   0  0  0  0  0  0  0  0  0  0  0  0
   -2.1928    8.9727   -3.9169 N   0  0  0  0  0  0  0  0  0  0  0  0
   -3.0392    8.4604   -2.9283 N   0  0  0  0  0  0  0  0  0  0  0  0
   -4.2511    7.9034   -3.0954 C   0  0  0  0  0  0  0  0  0  0  0  0
   -4.8564    7.9837   -4.5000 C   0  0  0  0  0  0  0  0  0  0  0  0
   -5.8211    6.9253   -4.6613 N   0  0  0  0  0  0  0  0  0  0  0  0
   -5.8169    6.1265   -5.7401 C   0  0  0  0  0  0  0  0  0  0  0  0
   -6.9234    5.0678   -5.7498 C   0  0  0  0  0  0  0  0  0  0  0  0
   -6.3312    3.6511   -5.6780 C   0  0  0  0  0  0  0  0  0  0  0  0
   -7.4483    2.6120   -5.6319 C   0  0  0  0  0  0  0  0  0  0  0  0
   -5.4516    3.5390   -4.4337 C   0  0  0  0  0  0  0  0  0  0  0  0
   -7.7629    5.2848   -6.9283 N   0  0  0  0  0  0  0  0  0  0  0  0
   -8.9626    5.8558   -6.7156 C   0  0  0  0  0  0  0  0  0  0  0  0
   -9.9192    6.0720   -7.9087 C   0  0  0  0  0  0  0  0  0  0  0  0
  -11.1160    6.9176   -7.4658 C   0  0  0  0  0  0  0  0  0  0  0  0
  -12.0987    7.0921   -8.6252 C   0  0  0  0  0  0  0  0  0  0  0  0
  -12.5061    5.8091   -9.1362 N   0  0  0  0  0  0  0  0  0  0  0  0
  -13.7787    5.3405   -9.1581 C   0  0  0  0  0  0  0  0  0  0  0  0
  -14.7834    6.2658   -8.6931 C   0  0  0  0  0  0  0  0  0  0  0  0
  -15.7686    6.8890   -8.3885 C   0  0  0  0  0  0  0  0  0  0  0  0
  -16.8595    7.7473   -7.9279 C   0  0  0  0  0  0  0  0  0  0  0  0
  -16.4058    8.7038   -6.9038 N   0  0  0  0  0  0  0  0  0  0  0  0
  -15.8644    8.0655   -5.7183 C   0  0  0  0  0  0  0  0  0  0  0  0
  -15.4858    9.7075   -7.4012 C   0  0  0  0  0  0  0  0  0  0  0  0
  -17.9722    6.8579   -7.3487 C   0  0  0  0  0  0  0  0  0  0  0  0
  -17.4285    8.4978   -9.1429 C   0  0  0  0  0  0  0  0  0  0  0  0
  -14.0714    4.2281   -9.5588 O   0  0  0  0  0  0  0  0  0  0  0  0
  -11.4211    4.9778   -9.5953 C   0  0  0  0  0  0  0  0  0  0  0  0
  -10.4134    4.7353   -8.4697 C   0  0  0  0  0  0  0  0  0  0  0  0
   -9.3488    6.1609   -5.5966 O   0  0  0  0  0  0  0  0  0  0  0  0
   -7.1636    4.9628   -8.2065 C   0  0  0  0  0  0  0  0  0  0  0  0
   -5.0210    6.2619   -6.6527 O   0  0  0  0  0  0  0  0  0  0  0  0
   -5.5212    9.3697   -4.6377 C   0  0  0  0  0  0  0  0  0  0  0  0
   -5.0602   10.1340   -5.8851 C   0  0  0  0  0  0  0  0  0  0  0  0
   -5.7790    9.6816   -7.1684 C   0  0  0  0  0  0  0  0  0  0  0  0
   -5.6373   10.7059   -8.1835 N   0  0  0  0  0  0  0  0  0  0  0  0
   -6.3524   11.9067   -7.7863 C   0  0  0  0  0  0  0  0  0  0  0  0
   -6.3514   12.1002   -6.2544 C   0  0  0  0  0  0  0  0  0  0  0  0
   -5.1978   11.5365   -5.6708 O   0  0  0  0  0  0  0  0  0  0  0  0
   -4.8703    7.3886   -2.1783 O   0  0  0  0  0  0  0  0  0  0  0  0
   -2.4873    8.7145   -1.6117 C   0  0  0  0  0  0  0  0  0  0  0  0
   -2.3458   10.2276   -1.4233 C   0  0  0  0  0  0  0  0  0  0  0  0
   -1.5050   10.8237   -2.5542 C   0  0  0  0  0  0  0  0  0  0  0  0
   -1.0839   10.1370   -6.0487 O   0  0  0  0  0  0  0  0  0  0  0  0
   -2.1677   11.9376   -8.7394 C   0  0  0  0  0  0  0  0  0  0  0  0
   -1.7545   10.9910   -9.7032 C   0  0  0  0  0  0  0  0  0  0  0  0
   -2.5941    9.9613  -10.1134 C   0  0  0  0  0  0  0  0  0  0  0  0
   -3.8554    9.9074   -9.5704 C   0  0  0  0  0  0  0  0  0  0  0  0
   -4.2962   10.8562   -8.6328 C   0  0  0  0  0  0  0  0  0  0  0  0
   -3.4528   11.8621   -8.2038 C   0  0  0  0  0  0  0  0  0  0  0  0
   -9.2712    6.7846   -8.9202 F   0  0  0  0  0  0  0  0  0  0  0  0
    1.2722   16.1550  -12.3978 H   0  0  0  0  0  0  0  0  0  0  0  0
    0.8037   14.5906  -13.0755 H   0  0  0  0  0  0  0  0  0  0  0  0
   -0.4035   15.8695  -12.9165 H   0  0  0  0  0  0  0  0  0  0  0  0
   -0.6914   14.2055  -11.0956 H   0  0  0  0  0  0  0  0  0  0  0  0
   -1.6010   17.2264   -9.5383 H   0  0  0  0  0  0  0  0  0  0  0  0
   -1.4242   17.1539  -11.3043 H   0  0  0  0  0  0  0  0  0  0  0  0
   -2.2203   15.8134  -10.4351 H   0  0  0  0  0  0  0  0  0  0  0  0
    4.5626   14.6544  -10.5198 H   0  0  0  0  0  0  0  0  0  0  0  0
    4.5306   12.5485   -9.1627 H   0  0  0  0  0  0  0  0  0  0  0  0
    2.3147   11.5319   -8.6350 H   0  0  0  0  0  0  0  0  0  0  0  0
   -0.3976   10.3559  -11.9248 H   0  0  0  0  0  0  0  0  0  0  0  0
    1.0574   11.2632  -11.4713 H   0  0  0  0  0  0  0  0  0  0  0  0
    1.6063    9.5496   -9.7535 H   0  0  0  0  0  0  0  0  0  0  0  0
    0.1100    8.6899  -10.1051 H   0  0  0  0  0  0  0  0  0  0  0  0
    1.3896    8.7738  -11.3248 H   0  0  0  0  0  0  0  0  0  0  0  0
   -0.8952   14.9316   -8.1810 H   0  0  0  0  0  0  0  0  0  0  0  0
   -2.1456   14.0997   -7.2560 H   0  0  0  0  0  0  0  0  0  0  0  0
   -0.1669   14.8131   -4.3888 H   0  0  0  0  0  0  0  0  0  0  0  0
   -0.9853   15.8218   -5.5863 H   0  0  0  0  0  0  0  0  0  0  0  0
   -1.7668   14.3602   -4.9699 H   0  0  0  0  0  0  0  0  0  0  0  0
    1.7730   14.7903   -5.8534 H   0  0  0  0  0  0  0  0  0  0  0  0
    1.7280   14.0482   -7.4511 H   0  0  0  0  0  0  0  0  0  0  0  0
    1.0016   15.6284   -7.2009 H   0  0  0  0  0  0  0  0  0  0  0  0
    0.1704   11.8702   -6.7523 H   0  0  0  0  0  0  0  0  0  0  0  0
    1.1033   12.5579   -5.3964 H   0  0  0  0  0  0  0  0  0  0  0  0
   -3.1079   10.9137   -4.0047 H   0  0  0  0  0  0  0  0  0  0  0  0
   -2.3867    8.6093   -4.8428 H   0  0  0  0  0  0  0  0  0  0  0  0
   -4.1125    7.8303   -5.2878 H   0  0  0  0  0  0  0  0  0  0  0  0
   -6.4048    6.7393   -3.8579 H   0  0  0  0  0  0  0  0  0  0  0  0
   -7.5770    5.2201   -4.8856 H   0  0  0  0  0  0  0  0  0  0  0  0
   -5.7044    3.4815   -6.5578 H   0  0  0  0  0  0  0  0  0  0  0  0
   -8.0565    2.7548   -4.7414 H   0  0  0  0  0  0  0  0  0  0  0  0
   -8.0981    2.6874   -6.5002 H   0  0  0  0  0  0  0  0  0  0  0  0
   -7.0278    1.6096   -5.6043 H   0  0  0  0  0  0  0  0  0  0  0  0
   -6.0251    3.7571   -3.5354 H   0  0  0  0  0  0  0  0  0  0  0  0
   -5.0530    2.5310   -4.3494 H   0  0  0  0  0  0  0  0  0  0  0  0
   -4.6156    4.2324   -4.4853 H   0  0  0  0  0  0  0  0  0  0  0  0
  -11.5959    6.4204   -6.6236 H   0  0  0  0  0  0  0  0  0  0  0  0
  -10.7605    7.8918   -7.1288 H   0  0  0  0  0  0  0  0  0  0  0  0
  -12.9805    7.6421   -8.2909 H   0  0  0  0  0  0  0  0  0  0  0  0
  -11.6114    7.6596   -9.4286 H   0  0  0  0  0  0  0  0  0  0  0  0
  -15.5916    8.8422   -5.0050 H   0  0  0  0  0  0  0  0  0  0  0  0
  -16.6194    7.4378   -5.2532 H   0  0  0  0  0  0  0  0  0  0  0  0
  -14.9730    7.4548   -5.9261 H   0  0  0  0  0  0  0  0  0  0  0  0
  -15.1788   10.3351   -6.5658 H   0  0  0  0  0  0  0  0  0  0  0  0
  -14.5809    9.2785   -7.8593 H   0  0  0  0  0  0  0  0  0  0  0  0
  -15.9814   10.3443   -8.1297 H   0  0  0  0  0  0  0  0  0  0  0  0
  -18.7017    7.4827   -6.8401 H   0  0  0  0  0  0  0  0  0  0  0  0
  -18.4644    6.3174   -8.1530 H   0  0  0  0  0  0  0  0  0  0  0  0
  -17.5765    6.1243   -6.6522 H   0  0  0  0  0  0  0  0  0  0  0  0
  -18.1475    9.2391   -8.8039 H   0  0  0  0  0  0  0  0  0  0  0  0
  -16.6450    8.9876   -9.7146 H   0  0  0  0  0  0  0  0  0  0  0  0
  -17.9292    7.7935   -9.8024 H   0  0  0  0  0  0  0  0  0  0  0  0
  -11.8478    4.0336   -9.9397 H   0  0  0  0  0  0  0  0  0  0  0  0
  -10.9168    5.4749  -10.4331 H   0  0  0  0  0  0  0  0  0  0  0  0
   -9.5829    4.1460   -8.8550 H   0  0  0  0  0  0  0  0  0  0  0  0
  -10.8865    4.1843   -7.6552 H   0  0  0  0  0  0  0  0  0  0  0  0
   -6.1122    5.2476   -8.1681 H   0  0  0  0  0  0  0  0  0  0  0  0
   -7.2345    3.8910   -8.4093 H   0  0  0  0  0  0  0  0  0  0  0  0
   -7.6254    5.5133   -9.0164 H   0  0  0  0  0  0  0  0  0  0  0  0
   -6.6050    9.2379   -4.6618 H   0  0  0  0  0  0  0  0  0  0  0  0
   -5.2931    9.9845   -3.7625 H   0  0  0  0  0  0  0  0  0  0  0  0
   -3.9823    9.9879   -6.0349 H   0  0  0  0  0  0  0  0  0  0  0  0
   -5.3452    8.7447   -7.5188 H   0  0  0  0  0  0  0  0  0  0  0  0
   -6.8464    9.5234   -6.9862 H   0  0  0  0  0  0  0  0  0  0  0  0
   -5.9075   12.7639   -8.2920 H   0  0  0  0  0  0  0  0  0  0  0  0
   -7.3893   11.8071   -8.1324 H   0  0  0  0  0  0  0  0  0  0  0  0
   -6.3230   13.1587   -5.9885 H   0  0  0  0  0  0  0  0  0  0  0  0
   -7.2540   11.6566   -5.8113 H   0  0  0  0  0  0  0  0  0  0  0  0
   -3.1639    8.2784   -0.8768 H   0  0  0  0  0  0  0  0  0  0  0  0
   -1.5079    8.2332   -1.5470 H   0  0  0  0  0  0  0  0  0  0  0  0
   -3.3388   10.6828   -1.4263 H   0  0  0  0  0  0  0  0  0  0  0  0
   -1.8800   10.4330   -0.4596 H   0  0  0  0  0  0  0  0  0  0  0  0
   -0.4920   10.4214   -2.5046 H   0  0  0  0  0  0  0  0  0  0  0  0
   -1.4563   11.9086   -2.4709 H   0  0  0  0  0  0  0  0  0  0  0  0
   -2.2786    9.2303  -10.8424 H   0  0  0  0  0  0  0  0  0  0  0  0
   -4.5427    9.1309   -9.8683 H   0  0  0  0  0  0  0  0  0  0  0  0
   -3.7735   12.5724   -7.4569 H   0  0  0  0  0  0  0  0  0  0  0  0
  1  2  1  0  0  0  0
  2  3  1  0  0  0  0
  2  5  1  0  0  0  0
  3  4  1  0  0  0  0
  5  6  2  0  0  0  0
  5 10  1  0  0  0  0
  6  7  1  0  0  0  0
  7  8  2  0  0  0  0
  8  9  1  0  0  0  0
  9 10  2  0  0  0  0
 10 11  1  0  0  0  0
 11 12  1  0  0  0  0
 11 15  2  0  0  0  0
 12 13  1  0  0  0  0
 12 68  1  0  0  0  0
 13 14  1  0  0  0  0
 15 16  1  0  0  0  0
 15 67  1  0  0  0  0
 16 17  1  0  0  0  0
 17 18  1  0  0  0  0
 17 19  1  0  0  0  0
 17 20  1  0  0  0  0
 20 21  1  0  0  0  0
 21 22  1  0  0  0  0
 22 23  1  0  0  0  0
 22 66  2  0  0  0  0
 23 24  1  0  0  0  0
 23 65  1  0  0  0  0
 24 25  1  0  0  0  0
 25 26  1  0  0  0  0
 25 63  1  0  0  0  0
 26 27  1  0  0  0  0
 26 62  2  0  0  0  0
 27 28  1  0  0  0  0
 27 55  1  0  0  0  0
 28 29  1  0  0  0  0
 29 30  1  0  0  0  0
 29 54  2  0  0  0  0
 30 31  1  0  0  0  0
 30 34  1  0  0  0  0
 31 32  1  0  0  0  0
 31 33  1  0  0  0  0
 34 35  1  0  0  0  0
 34 53  1  0  0  0  0
 35 36  1  0  0  0  0
 35 52  2  0  0  0  0
 36 37  1  0  0  0  0
 36 51  1  0  0  0  0
 36 73  1  0  0  0  0
 37 38  1  0  0  0  0
 38 39  1  0  0  0  0
 39 40  1  0  0  0  0
 39 50  1  0  0  0  0
 40 41  1  0  0  0  0
 40 49  2  0  0  0  0
 42 43  1  0  0  0  0
 43 44  1  0  0  0  0
 43 47  1  0  0  0  0
 43 48  1  0  0  0  0
 44 45  1  0  0  0  0
 44 46  1  0  0  0  0
 50 51  1  0  0  0  0
 55 56  1  0  0  0  0
 56 57  1  0  0  0  0
 56 61  1  0  0  0  0
 57 58  1  0  0  0  0
 58 59  1  0  0  0  0
 58 71  1  0  0  0  0
 59 60  1  0  0  0  0
 60 61  1  0  0  0  0
 63 64  1  0  0  0  0
 64 65  1  0  0  0  0
 67 68  2  0  0  0  0
 67 72  1  0  0  0  0
 68 69  1  0  0  0  0
 69 70  2  0  0  0  0
 70 71  1  0  0  0  0
 71 72  2  0  0  0  0
 41 42  3  0  0  0  0
  1 74  1  0  0  0  0
  1 75  1  0  0  0  0
  1 76  1  0  0  0  0
  2 77  1  0  0  0  0
  4 78  1  0  0  0  0
  4 79  1  0  0  0  0
  4 80  1  0  0  0  0
  7 81  1  0  0  0  0
  8 82  1  0  0  0  0
  9 83  1  0  0  0  0
 13 84  1  0  0  0  0
 13 85  1  0  0  0  0
 14 86  1  0  0  0  0
 14 87  1  0  0  0  0
 14 88  1  0  0  0  0
 16 89  1  0  0  0  0
 16 90  1  0  0  0  0
 18 91  1  0  0  0  0
 18 92  1  0  0  0  0
 18 93  1  0  0  0  0
 19 94  1  0  0  0  0
 19 95  1  0  0  0  0
 19 96  1  0  0  0  0
 20 97  1  0  0  0  0
 20 98  1  0  0  0  0
 23 99  1  0  0  0  0
 24100  1  0  0  0  0
 27101  1  0  0  0  0
 28102  1  0  0  0  0
 30103  1  0  0  0  0
 31104  1  0  0  0  0
 32105  1  0  0  0  0
 32106  1  0  0  0  0
 32107  1  0  0  0  0
 33108  1  0  0  0  0
 33109  1  0  0  0  0
 33110  1  0  0  0  0
 37111  1  0  0  0  0
 37112  1  0  0  0  0
 38113  1  0  0  0  0
 38114  1  0  0  0  0
 45115  1  0  0  0  0
 45116  1  0  0  0  0
 45117  1  0  0  0  0
 46118  1  0  0  0  0
 46119  1  0  0  0  0
 46120  1  0  0  0  0
 47121  1  0  0  0  0
 47122  1  0  0  0  0
 47123  1  0  0  0  0
 48124  1  0  0  0  0
 48125  1  0  0  0  0
 48126  1  0  0  0  0
 50127  1  0  0  0  0
 50128  1  0  0  0  0
 51129  1  0  0  0  0
 51130  1  0  0  0  0
 53131  1  0  0  0  0
 53132  1  0  0  0  0
 53133  1  0  0  0  0
 55134  1  0  0  0  0
 55135  1  0  0  0  0
 56136  1  0  0  0  0
 57137  1  0  0  0  0
 57138  1  0  0  0  0
 59139  1  0  0  0  0
 59140  1  0  0  0  0
 60141  1  0  0  0  0
 60142  1  0  0  0  0
 63143  1  0  0  0  0
 63144  1  0  0  0  0
 64145  1  0  0  0  0
 64146  1  0  0  0  0
 65147  1  0  0  0  0
 65148  1  0  0  0  0
 69149  1  0  0  0  0
 70150  1  0  0  0  0
 72151  1  0  0  0  0
M  END
$$$$
