 xtb: 6.7.1 (edcfbbe)
          08232521113D

151157  0     0  0            999 V2000
   -4.4393   -1.0612    3.3986 C   0  0  0  0  0  0  0  0  0  0  0  0
   -3.8477   -2.4228    3.0279 C   0  0  0  0  0  0  0  0  0  0  0  0
   -4.5161   -3.0645    1.9498 O   0  0  0  0  0  0  0  0  0  0  0  0
   -4.7260   -2.2720    0.8070 C   0  0  0  0  0  0  0  0  0  0  0  0
   -3.9899   -3.3724    4.2020 C   0  0  0  0  0  0  0  0  0  0  0  0
   -5.1994   -3.3998    4.7402 N   0  0  0  0  0  0  0  0  0  0  0  0
   -5.4619   -4.2383    5.7221 C   0  0  0  0  0  0  0  0  0  0  0  0
   -4.5180   -5.1126    6.2382 C   0  0  0  0  0  0  0  0  0  0  0  0
   -3.2456   -5.0745    5.7009 C   0  0  0  0  0  0  0  0  0  0  0  0
   -2.9498   -4.1924    4.6608 C   0  0  0  0  0  0  0  0  0  0  0  0
   -1.5852   -4.1439    4.1245 C   0  0  0  0  0  0  0  0  0  0  0  0
   -1.0373   -5.2161    3.4549 N   0  0  0  0  0  0  0  0  0  0  0  0
   -1.6857   -6.4611    3.1247 C   0  0  0  0  0  0  0  0  0  0  0  0
   -1.2060   -7.6093    4.0119 C   0  0  0  0  0  0  0  0  0  0  0  0
   -0.6666   -3.1196    4.2148 C   0  0  0  0  0  0  0  0  0  0  0  0
   -0.8371   -1.7763    4.8519 C   0  0  0  0  0  0  0  0  0  0  0  0
   -0.3949   -1.6779    6.3305 C   0  0  0  0  0  0  0  0  0  0  0  0
   -1.0405   -2.7940    7.1533 C   0  0  0  0  0  0  0  0  0  0  0  0
   -0.8367   -0.3195    6.8807 C   0  0  0  0  0  0  0  0  0  0  0  0
    1.1302   -1.8284    6.4736 C   0  0  0  0  0  0  0  0  0  0  0  0
    1.8738   -0.6690    6.0763 O   0  0  0  0  0  0  0  0  0  0  0  0
    2.3198    0.1251    7.0468 C   0  0  0  0  0  0  0  0  0  0  0  0
    3.2127    1.2332    6.4988 C   0  0  0  0  0  0  0  0  0  0  0  0
    2.6070    1.9573    5.3899 N   0  0  0  0  0  0  0  0  0  0  0  0
    3.5641    2.7880    4.7935 N   0  0  0  0  0  0  0  0  0  0  0  0
    4.4203    2.4401    3.8060 C   0  0  0  0  0  0  0  0  0  0  0  0
    4.1839    1.0569    3.1694 C   0  0  0  0  0  0  0  0  0  0  0  0
    3.4467    1.2125    1.9299 N   0  0  0  0  0  0  0  0  0  0  0  0
    2.1086    1.1355    1.8915 C   0  0  0  0  0  0  0  0  0  0  0  0
    1.4990    1.2612    0.4943 C   0  0  0  0  0  0  0  0  0  0  0  0
    1.0233    2.7010    0.2186 C   0  0  0  0  0  0  0  0  0  0  0  0
    0.5084    2.8076   -1.2155 C   0  0  0  0  0  0  0  0  0  0  0  0
    2.1656    3.6912    0.4382 C   0  0  0  0  0  0  0  0  0  0  0  0
    0.4308    0.2777    0.3295 N   0  0  0  0  0  0  0  0  0  0  0  0
    0.7129   -0.7933   -0.4326 C   0  0  0  0  0  0  0  0  0  0  0  0
   -0.3767   -1.8426   -0.7156 C   0  0  0  0  0  0  0  0  0  0  0  0
   -0.4460   -2.8555    0.4301 C   0  0  0  0  0  0  0  0  0  0  0  0
   -1.4357   -3.9707    0.0972 C   0  0  0  0  0  0  0  0  0  0  0  0
   -1.0462   -4.6160   -1.1316 N   0  0  0  0  0  0  0  0  0  0  0  0
   -0.6300   -5.9021   -1.1240 C   0  0  0  0  0  0  0  0  0  0  0  0
   -0.1538   -6.4126   -2.3846 C   0  0  0  0  0  0  0  0  0  0  0  0
    0.3071   -6.9593   -3.3538 C   0  0  0  0  0  0  0  0  0  0  0  0
    0.8199   -7.7066   -4.5007 C   0  0  0  0  0  0  0  0  0  0  0  0
    0.6730   -9.1564   -4.2908 N   0  0  0  0  0  0  0  0  0  0  0  0
    1.4423   -9.6580   -3.1649 C   0  0  0  0  0  0  0  0  0  0  0  0
   -0.7090   -9.5869   -4.1759 C   0  0  0  0  0  0  0  0  0  0  0  0
    0.0550   -7.2786   -5.7641 C   0  0  0  0  0  0  0  0  0  0  0  0
    2.3040   -7.3517   -4.6930 C   0  0  0  0  0  0  0  0  0  0  0  0
   -0.6619   -6.6102   -0.1293 O   0  0  0  0  0  0  0  0  0  0  0  0
   -1.0166   -3.7317   -2.2678 C   0  0  0  0  0  0  0  0  0  0  0  0
   -0.0528   -2.5676   -2.0263 C   0  0  0  0  0  0  0  0  0  0  0  0
    1.8287   -0.9816   -0.8986 O   0  0  0  0  0  0  0  0  0  0  0  0
   -0.8120    0.5223    1.0303 C   0  0  0  0  0  0  0  0  0  0  0  0
    1.4348    0.9746    2.8994 O   0  0  0  0  0  0  0  0  0  0  0  0
    5.5156    0.3448    2.9291 C   0  0  0  0  0  0  0  0  0  0  0  0
    5.3735   -1.0490    2.2925 C   0  0  0  0  0  0  0  0  0  0  0  0
    4.0656   -1.7269    2.7001 C   0  0  0  0  0  0  0  0  0  0  0  0
    3.8653   -3.0140    2.0605 N   0  0  0  0  0  0  0  0  0  0  0  0
    4.0203   -2.8774    0.6128 C   0  0  0  0  0  0  0  0  0  0  0  0
    5.3420   -2.1866    0.2841 C   0  0  0  0  0  0  0  0  0  0  0  0
    5.4303   -0.9150    0.8856 O   0  0  0  0  0  0  0  0  0  0  0  0
    5.2803    3.1948    3.3913 O   0  0  0  0  0  0  0  0  0  0  0  0
    3.8731    3.8990    5.6755 C   0  0  0  0  0  0  0  0  0  0  0  0
    4.4724    3.3416    6.9709 C   0  0  0  0  0  0  0  0  0  0  0  0
    3.5476    2.2793    7.5672 C   0  0  0  0  0  0  0  0  0  0  0  0
    2.1260   -0.0459    8.2211 O   0  0  0  0  0  0  0  0  0  0  0  0
    0.4994   -3.5767    3.5357 C   0  0  0  0  0  0  0  0  0  0  0  0
    0.2322   -4.8810    3.0692 C   0  0  0  0  0  0  0  0  0  0  0  0
    1.1783   -5.5656    2.3111 C   0  0  0  0  0  0  0  0  0  0  0  0
    2.3587   -4.9237    2.0121 C   0  0  0  0  0  0  0  0  0  0  0  0
    2.6331   -3.6094    2.4406 C   0  0  0  0  0  0  0  0  0  0  0  0
    1.7013   -2.9461    3.2204 C   0  0  0  0  0  0  0  0  0  0  0  0
   -1.6192   -1.2257   -0.8700 F   0  0  0  0  0  0  0  0  0  0  0  0
   -3.9693   -0.6994    4.3095 H   0  0  0  0  0  0  0  0  0  0  0  0
   -4.2719   -0.3310    2.6109 H   0  0  0  0  0  0  0  0  0  0  0  0
   -5.5040   -1.1750    3.5806 H   0  0  0  0  0  0  0  0  0  0  0  0
   -2.7837   -2.3058    2.7610 H   0  0  0  0  0  0  0  0  0  0  0  0
   -5.5186   -1.5331    0.9615 H   0  0  0  0  0  0  0  0  0  0  0  0
   -3.8128   -1.7524    0.4946 H   0  0  0  0  0  0  0  0  0  0  0  0
   -5.0389   -2.9599    0.0220 H   0  0  0  0  0  0  0  0  0  0  0  0
   -6.4714   -4.2018    6.1102 H   0  0  0  0  0  0  0  0  0  0  0  0
   -4.7657   -5.7906    7.0399 H   0  0  0  0  0  0  0  0  0  0  0  0
   -2.4677   -5.7137    6.0926 H   0  0  0  0  0  0  0  0  0  0  0  0
   -2.7657   -6.3265    3.2274 H   0  0  0  0  0  0  0  0  0  0  0  0
   -1.4602   -6.7041    2.0811 H   0  0  0  0  0  0  0  0  0  0  0  0
   -1.4556   -7.4329    5.0554 H   0  0  0  0  0  0  0  0  0  0  0  0
   -1.6763   -8.5362    3.6956 H   0  0  0  0  0  0  0  0  0  0  0  0
   -0.1277   -7.7203    3.9306 H   0  0  0  0  0  0  0  0  0  0  0  0
   -0.2689   -1.0379    4.2805 H   0  0  0  0  0  0  0  0  0  0  0  0
   -1.8917   -1.4980    4.8147 H   0  0  0  0  0  0  0  0  0  0  0  0
   -0.8190   -2.6632    8.2099 H   0  0  0  0  0  0  0  0  0  0  0  0
   -2.1197   -2.7797    7.0226 H   0  0  0  0  0  0  0  0  0  0  0  0
   -0.6668   -3.7650    6.8378 H   0  0  0  0  0  0  0  0  0  0  0  0
   -0.4605   -0.1770    7.8912 H   0  0  0  0  0  0  0  0  0  0  0  0
   -0.4635    0.4894    6.2555 H   0  0  0  0  0  0  0  0  0  0  0  0
   -1.9226   -0.2620    6.9059 H   0  0  0  0  0  0  0  0  0  0  0  0
    1.3750   -2.0359    7.5202 H   0  0  0  0  0  0  0  0  0  0  0  0
    1.4875   -2.6454    5.8435 H   0  0  0  0  0  0  0  0  0  0  0  0
    4.1484    0.7239    6.1880 H   0  0  0  0  0  0  0  0  0  0  0  0
    2.1104    1.3867    4.7069 H   0  0  0  0  0  0  0  0  0  0  0  0
    3.5687    0.4547    3.8422 H   0  0  0  0  0  0  0  0  0  0  0  0
    3.9957    1.2713    1.0859 H   0  0  0  0  0  0  0  0  0  0  0  0
    2.2628    0.9966   -0.2449 H   0  0  0  0  0  0  0  0  0  0  0  0
    0.2161    2.9482    0.9139 H   0  0  0  0  0  0  0  0  0  0  0  0
    0.1281    3.8087   -1.4032 H   0  0  0  0  0  0  0  0  0  0  0  0
    1.3136    2.6079   -1.9193 H   0  0  0  0  0  0  0  0  0  0  0  0
   -0.2914    2.0966   -1.4056 H   0  0  0  0  0  0  0  0  0  0  0  0
    2.5051    3.6873    1.4710 H   0  0  0  0  0  0  0  0  0  0  0  0
    3.0099    3.4554   -0.2060 H   0  0  0  0  0  0  0  0  0  0  0  0
    1.8283    4.6968    0.1988 H   0  0  0  0  0  0  0  0  0  0  0  0
    0.5511   -3.2771    0.5665 H   0  0  0  0  0  0  0  0  0  0  0  0
   -0.7360   -2.3777    1.3654 H   0  0  0  0  0  0  0  0  0  0  0  0
   -1.4405   -4.7168    0.8900 H   0  0  0  0  0  0  0  0  0  0  0  0
   -2.4443   -3.5624   -0.0147 H   0  0  0  0  0  0  0  0  0  0  0  0
    1.1657   -9.1839   -2.2126 H   0  0  0  0  0  0  0  0  0  0  0  0
    1.2638  -10.7289   -3.0808 H   0  0  0  0  0  0  0  0  0  0  0  0
    2.5050   -9.5124   -3.3411 H   0  0  0  0  0  0  0  0  0  0  0  0
   -1.2342   -9.1206   -3.3298 H   0  0  0  0  0  0  0  0  0  0  0  0
   -1.2491   -9.3699   -5.0939 H   0  0  0  0  0  0  0  0  0  0  0  0
   -0.7183  -10.6666   -4.0331 H   0  0  0  0  0  0  0  0  0  0  0  0
    0.3467   -6.2699   -6.0469 H   0  0  0  0  0  0  0  0  0  0  0  0
    0.2988   -7.9578   -6.5766 H   0  0  0  0  0  0  0  0  0  0  0  0
   -1.0194   -7.2818   -5.6021 H   0  0  0  0  0  0  0  0  0  0  0  0
    2.8528   -7.4121   -3.7574 H   0  0  0  0  0  0  0  0  0  0  0  0
    2.7440   -8.0347   -5.4147 H   0  0  0  0  0  0  0  0  0  0  0  0
    2.3938   -6.3345   -5.0667 H   0  0  0  0  0  0  0  0  0  0  0  0
   -0.7132   -4.2902   -3.1552 H   0  0  0  0  0  0  0  0  0  0  0  0
   -2.0276   -3.3347   -2.4263 H   0  0  0  0  0  0  0  0  0  0  0  0
   -0.1189   -1.8579   -2.8523 H   0  0  0  0  0  0  0  0  0  0  0  0
    0.9741   -2.9270   -1.9643 H   0  0  0  0  0  0  0  0  0  0  0  0
   -0.5828    1.0442    1.9568 H   0  0  0  0  0  0  0  0  0  0  0  0
   -1.4961    1.1227    0.4263 H   0  0  0  0  0  0  0  0  0  0  0  0
   -1.3060   -0.4088    1.2878 H   0  0  0  0  0  0  0  0  0  0  0  0
    6.1366    0.9602    2.2759 H   0  0  0  0  0  0  0  0  0  0  0  0
    6.0269    0.2517    3.8884 H   0  0  0  0  0  0  0  0  0  0  0  0
    6.2209   -1.6798    2.6130 H   0  0  0  0  0  0  0  0  0  0  0  0
    4.0617   -1.8789    3.7826 H   0  0  0  0  0  0  0  0  0  0  0  0
    3.2440   -1.0627    2.4071 H   0  0  0  0  0  0  0  0  0  0  0  0
    4.0072   -3.8652    0.1521 H   0  0  0  0  0  0  0  0  0  0  0  0
    3.2061   -2.2733    0.1835 H   0  0  0  0  0  0  0  0  0  0  0  0
    6.1839   -2.8109    0.6209 H   0  0  0  0  0  0  0  0  0  0  0  0
    5.4165   -2.0210   -0.7916 H   0  0  0  0  0  0  0  0  0  0  0  0
    4.5757    4.5551    5.1620 H   0  0  0  0  0  0  0  0  0  0  0  0
    2.9421    4.4303    5.8823 H   0  0  0  0  0  0  0  0  0  0  0  0
    5.4450    2.8976    6.7449 H   0  0  0  0  0  0  0  0  0  0  0  0
    4.6253    4.1512    7.6840 H   0  0  0  0  0  0  0  0  0  0  0  0
    2.6142    2.7385    7.8941 H   0  0  0  0  0  0  0  0  0  0  0  0
    4.0114    1.7974    8.4272 H   0  0  0  0  0  0  0  0  0  0  0  0
    0.9868   -6.5579    1.9353 H   0  0  0  0  0  0  0  0  0  0  0  0
    3.1035   -5.4415    1.4276 H   0  0  0  0  0  0  0  0  0  0  0  0
    1.8379   -1.9389    3.5722 H   0  0  0  0  0  0  0  0  0  0  0  0
  1  2  1  0  0  0  0
  2  3  1  0  0  0  0
  3  4  1  0  0  0  0
  2  5  1  0  0  0  0
  5  6  4  0  0  0  0
  6  7  4  0  0  0  0
  7  8  4  0  0  0  0
  8  9  4  0  0  0  0
  5 10  4  0  0  0  0
  9 10  4  0  0  0  0
 10 11  1  0  0  0  0
 11 12  1  0  0  0  0
 12 13  1  0  0  0  0
 13 14  1  0  0  0  0
 11 15  4  0  0  0  0
 15 16  1  0  0  0  0
 16 17  1  0  0  0  0
 17 18  1  0  0  0  0
 17 19  1  0  0  0  0
 17 20  1  0  0  0  0
 20 21  1  0  0  0  0
 21 22  1  0  0  0  0
 22 23  1  0  0  0  0
 23 24  1  0  0  0  0
 24 25  1  0  0  0  0
 25 26  4  0  0  0  0
 26 27  1  0  0  0  0
 27 28  1  0  0  0  0
 28 29  4  0  0  0  0
 29 30  1  0  0  0  0
 30 31  1  0  0  0  0
 31 32  1  0  0  0  0
 31 33  1  0  0  0  0
 30 34  1  0  0  0  0
 34 35  4  0  0  0  0
 35 36  1  0  0  0  0
 36 37  1  0  0  0  0
 37 38  1  0  0  0  0
 38 39  1  0  0  0  0
 39 40  4  0  0  0  0
 40 41  1  0  0  0  0
 41 42  3  0  0  0  0
 42 43  1  0  0  0  0
 43 44  1  0  0  0  0
 44 45  1  0  0  0  0
 44 46  1  0  0  0  0
 43 47  1  0  0  0  0
 43 48  1  0  0  0  0
 40 49  2  0  0  0  0
 39 50  1  0  0  0  0
 36 51  1  0  0  0  0
 50 51  1  0  0  0  0
 35 52  2  0  0  0  0
 34 53  1  0  0  0  0
 29 54  2  0  0  0  0
 27 55  1  0  0  0  0
 55 56  1  0  0  0  0
 56 57  1  0  0  0  0
 57 58  1  0  0  0  0
 58 59  1  0  0  0  0
 59 60  1  0  0  0  0
 56 61  1  0  0  0  0
 60 61  1  0  0  0  0
 26 62  2  0  0  0  0
 25 63  1  0  0  0  0
 63 64  1  0  0  0  0
 23 65  1  0  0  0  0
 64 65  1  0  0  0  0
 22 66  2  0  0  0  0
 15 67  4  0  0  0  0
 12 68  1  0  0  0  0
 67 68  4  0  0  0  0
 68 69  4  0  0  0  0
 69 70  2  0  0  0  0
 58 71  1  0  0  0  0
 70 71  4  0  0  0  0
 67 72  4  0  0  0  0
 71 72  4  0  0  0  0
 36 73  1  0  0  0  0
  1 74  1  0  0  0  0
  1 75  1  0  0  0  0
  1 76  1  0  0  0  0
  2 77  1  0  0  0  0
  4 78  1  0  0  0  0
  4 79  1  0  0  0  0
  4 80  1  0  0  0  0
  7 81  1  0  0  0  0
  8 82  1  0  0  0  0
  9 83  1  0  0  0  0
 13 84  1  0  0  0  0
 13 85  1  0  0  0  0
 14 86  1  0  0  0  0
 14 87  1  0  0  0  0
 14 88  1  0  0  0  0
 16 89  1  0  0  0  0
 16 90  1  0  0  0  0
 18 91  1  0  0  0  0
 18 92  1  0  0  0  0
 18 93  1  0  0  0  0
 19 94  1  0  0  0  0
 19 95  1  0  0  0  0
 19 96  1  0  0  0  0
 20 97  1  0  0  0  0
 20 98  1  0  0  0  0
 23 99  1  0  0  0  0
 24100  1  0  0  0  0
 27101  1  0  0  0  0
 28102  1  0  0  0  0
 30103  1  0  0  0  0
 31104  1  0  0  0  0
 32105  1  0  0  0  0
 32106  1  0  0  0  0
 32107  1  0  0  0  0
 33108  1  0  0  0  0
 33109  1  0  0  0  0
 33110  1  0  0  0  0
 37111  1  0  0  0  0
 37112  1  0  0  0  0
 38113  1  0  0  0  0
 38114  1  0  0  0  0
 45115  1  0  0  0  0
 45116  1  0  0  0  0
 45117  1  0  0  0  0
 46118  1  0  0  0  0
 46119  1  0  0  0  0
 46120  1  0  0  0  0
 47121  1  0  0  0  0
 47122  1  0  0  0  0
 47123  1  0  0  0  0
 48124  1  0  0  0  0
 48125  1  0  0  0  0
 48126  1  0  0  0  0
 50127  1  0  0  0  0
 50128  1  0  0  0  0
 51129  1  0  0  0  0
 51130  1  0  0  0  0
 53131  1  0  0  0  0
 53132  1  0  0  0  0
 53133  1  0  0  0  0
 55134  1  0  0  0  0
 55135  1  0  0  0  0
 56136  1  0  0  0  0
 57137  1  0  0  0  0
 57138  1  0  0  0  0
 59139  1  0  0  0  0
 59140  1  0  0  0  0
 60141  1  0  0  0  0
 60142  1  0  0  0  0
 63143  1  0  0  0  0
 63144  1  0  0  0  0
 64145  1  0  0  0  0
 64146  1  0  0  0  0
 65147  1  0  0  0  0
 65148  1  0  0  0  0
 69149  1  0  0  0  0
 70150  1  0  0  0  0
 72151  1  0  0  0  0
M  END
$$$$
