mol_bioactive_12
     RDKit          3D

151157  0  0  0  0  0  0  0  0999 V2000
   -4.3560    1.9692   11.2403 C   0  0  0  0  0  0  0  0  0  0  0  0
   -3.4525    1.8691   10.0015 C   0  0  2  0  0  0  0  0  0  0  0  0
   -2.0772    1.7369   10.3995 O   0  0  0  0  0  0  0  0  0  0  0  0
   -1.7155    0.4041   10.7280 C   0  0  0  0  0  0  0  0  0  0  0  0
   -3.5799    3.1021    9.1121 C   0  0  0  0  0  0  0  0  0  0  0  0
   -3.6473    4.3084    9.7552 N   0  0  0  0  0  0  0  0  0  0  0  0
   -3.7295    5.4298    9.0105 C   0  0  0  0  0  0  0  0  0  0  0  0
   -3.7552    5.4337    7.6318 C   0  0  0  0  0  0  0  0  0  0  0  0
   -3.6950    4.2085    6.9791 C   0  0  0  0  0  0  0  0  0  0  0  0
   -3.5981    3.0143    7.7106 C   0  0  0  0  0  0  0  0  0  0  0  0
   -3.5693    1.7502    6.9670 C   0  0  0  0  0  0  0  0  0  0  0  0
   -4.7109    1.1776    6.4221 N   0  0  0  0  0  0  0  0  0  0  0  0
   -6.0642    1.7124    6.5033 C   0  0  0  0  0  0  0  0  0  0  0  0
   -6.8494    1.1243    7.6616 C   0  0  0  0  0  0  0  0  0  0  0  0
   -2.4967    0.9192    6.6582 C   0  0  0  0  0  0  0  0  0  0  0  0
   -1.0360    1.0667    7.0108 C   0  0  0  0  0  0  0  0  0  0  0  0
   -0.1204    1.8550    6.0202 C   0  0  0  0  0  0  0  0  0  0  0  0
   -0.1889    3.3608    6.3540 C   0  0  0  0  0  0  0  0  0  0  0  0
   -0.5113    1.6665    4.5417 C   0  0  0  0  0  0  0  0  0  0  0  0
    1.3538    1.3977    6.2466 C   0  0  0  0  0  0  0  0  0  0  0  0
    1.6850    0.2361    5.4561 O   0  0  0  0  0  0  0  0  0  0  0  0
    2.9161   -0.2934    5.7381 C   0  0  0  0  0  0  0  0  0  0  0  0
    3.3624   -1.3231    4.6847 C   0  0  1  0  0  0  0  0  0  0  0  0
    2.9370   -0.9092    3.3313 N   0  0  0  0  0  0  0  0  0  0  0  0
    3.4117   -1.8004    2.3282 N   0  0  0  0  0  0  0  0  0  0  0  0
    2.6158   -2.4059    1.3443 C   0  0  0  0  0  0  0  0  0  0  0  0
    1.1204   -2.6032    1.6617 C   0  0  1  0  0  0  0  0  0  0  0  0
    0.3345   -2.6276    0.4367 N   0  0  0  0  0  0  0  0  0  0  0  0
   -0.1835   -1.4629   -0.0890 C   0  0  0  0  0  0  0  0  0  0  0  0
   -0.9888   -1.6419   -1.4003 C   0  0  2  0  0  0  0  0  0  0  0  0
   -0.1576   -1.2458   -2.6473 C   0  0  0  0  0  0  0  0  0  0  0  0
   -0.9282   -1.5651   -3.9353 C   0  0  0  0  0  0  0  0  0  0  0  0
    1.1954   -1.9683   -2.6962 C   0  0  0  0  0  0  0  0  0  0  0  0
   -2.2795   -0.9107   -1.2433 N   0  0  0  0  0  0  0  0  0  0  0  0
   -3.3271   -1.6180   -0.6389 C   0  0  0  0  0  0  0  0  0  0  0  0
   -4.6221   -0.8837   -0.2231 C   0  0  0  0  0  0  0  0  0  0  0  0
   -4.3878   -0.0963    1.0672 C   0  0  0  0  0  0  0  0  0  0  0  0
   -5.6700    0.5657    1.5514 C   0  0  0  0  0  0  0  0  0  0  0  0
   -6.8039   -0.3515    1.6192 N   0  0  0  0  0  0  0  0  0  0  0  0
   -7.8480    0.0036    2.4763 C   0  0  0  0  0  0  0  0  0  0  0  0
   -9.1180   -0.6808    2.3538 C   0  0  0  0  0  0  0  0  0  0  0  0
  -10.1896   -1.2205    2.2540 C   0  0  0  0  0  0  0  0  0  0  0  0
  -11.5187   -1.8624    2.1210 C   0  0  0  0  0  0  0  0  0  0  0  0
  -12.5874   -0.8837    1.7745 N   0  0  0  0  0  0  0  0  0  0  0  0
  -12.8867    0.0835    2.8351 C   0  0  0  0  0  0  0  0  0  0  0  0
  -12.3705   -0.1699    0.5118 C   0  0  0  0  0  0  0  0  0  0  0  0
  -11.8456   -2.5909    3.4451 C   0  0  0  0  0  0  0  0  0  0  0  0
  -11.4292   -2.9555    1.0298 C   0  0  0  0  0  0  0  0  0  0  0  0
   -7.7550    0.8702    3.3423 O   0  0  0  0  0  0  0  0  0  0  0  0
   -7.0248   -1.1961    0.4471 C   0  0  0  0  0  0  0  0  0  0  0  0
   -5.7511   -1.8951    0.0028 C   0  0  0  0  0  0  0  0  0  0  0  0
   -3.2037   -2.8241   -0.3899 O   0  0  0  0  0  0  0  0  0  0  0  0
   -2.2707    0.5412   -1.4378 C   0  0  0  0  0  0  0  0  0  0  0  0
   -0.0232   -0.3783    0.4647 O   0  0  0  0  0  0  0  0  0  0  0  0
    0.9740   -3.9150    2.4512 C   0  0  0  0  0  0  0  0  0  0  0  0
   -0.4444   -4.2387    2.9431 C   0  0  1  0  0  0  0  0  0  0  0  0
   -1.1986   -2.9968    3.4419 C   0  0  0  0  0  0  0  0  0  0  0  0
   -2.5226   -3.3738    3.9979 N   0  0  0  0  0  0  0  0  0  0  0  0
   -3.2974   -4.1575    3.0011 C   0  0  0  0  0  0  0  0  0  0  0  0
   -2.4611   -5.3168    2.4211 C   0  0  0  0  0  0  0  0  0  0  0  0
   -1.1892   -4.8872    1.9000 O   0  0  0  0  0  0  0  0  0  0  0  0
    3.1022   -2.8974    0.3184 O   0  0  0  0  0  0  0  0  0  0  0  0
    4.8694   -1.8455    2.2216 C   0  0  0  0  0  0  0  0  0  0  0  0
    5.4444   -2.2975    3.5626 C   0  0  0  0  0  0  0  0  0  0  0  0
    4.9002   -1.4382    4.7070 C   0  0  0  0  0  0  0  0  0  0  0  0
    3.5714   -0.0098    6.7371 O   0  0  0  0  0  0  0  0  0  0  0  0
   -3.0354   -0.2015    5.9460 C   0  0  0  0  0  0  0  0  0  0  0  0
   -4.3977   -0.0062    5.7827 C   0  0  0  0  0  0  0  0  0  0  0  0
   -5.1894   -0.9356    5.0944 C   0  0  0  0  0  0  0  0  0  0  0  0
   -4.5606   -2.0552    4.5177 C   0  0  0  0  0  0  0  0  0  0  0  0
   -3.1835   -2.2810    4.6179 C   0  0  0  0  0  0  0  0  0  0  0  0
   -2.4600   -1.3737    5.4116 C   0  0  0  0  0  0  0  0  0  0  0  0
   -5.0598   -0.0301   -1.2002 F   0  0  0  0  0  0  0  0  0  0  0  0
   -4.1533    2.8784   11.8118 H   0  0  0  0  0  0  0  0  0  0  0  0
   -5.4114    1.9683   10.9556 H   0  0  0  0  0  0  0  0  0  0  0  0
   -4.1797    1.1391   11.9254 H   0  0  0  0  0  0  0  0  0  0  0  0
   -3.7614    0.9780    9.4441 H   0  0  0  0  0  0  0  0  0  0  0  0
   -2.2107    0.0814   11.6475 H   0  0  0  0  0  0  0  0  0  0  0  0
   -1.9556   -0.2803    9.9090 H   0  0  0  0  0  0  0  0  0  0  0  0
   -0.6357    0.3749   10.8934 H   0  0  0  0  0  0  0  0  0  0  0  0
   -3.7727    6.3578    9.5734 H   0  0  0  0  0  0  0  0  0  0  0  0
   -3.8207    6.3614    7.0773 H   0  0  0  0  0  0  0  0  0  0  0  0
   -3.7117    4.1808    5.8919 H   0  0  0  0  0  0  0  0  0  0  0  0
   -6.0147    2.8008    6.5914 H   0  0  0  0  0  0  0  0  0  0  0  0
   -6.5650    1.5044    5.5533 H   0  0  0  0  0  0  0  0  0  0  0  0
   -6.3600    1.3302    8.6178 H   0  0  0  0  0  0  0  0  0  0  0  0
   -7.8556    1.5550    7.6955 H   0  0  0  0  0  0  0  0  0  0  0  0
   -6.9506    0.0379    7.5677 H   0  0  0  0  0  0  0  0  0  0  0  0
   -0.9538    1.5077    8.0105 H   0  0  0  0  0  0  0  0  0  0  0  0
   -0.6282    0.0529    7.1327 H   0  0  0  0  0  0  0  0  0  0  0  0
    0.0135    3.5470    7.4167 H   0  0  0  0  0  0  0  0  0  0  0  0
    0.5456    3.9293    5.7744 H   0  0  0  0  0  0  0  0  0  0  0  0
   -1.1684    3.7774    6.1137 H   0  0  0  0  0  0  0  0  0  0  0  0
   -1.5015    2.0891    4.3292 H   0  0  0  0  0  0  0  0  0  0  0  0
    0.2023    2.1759    3.8842 H   0  0  0  0  0  0  0  0  0  0  0  0
   -0.5284    0.6103    4.2546 H   0  0  0  0  0  0  0  0  0  0  0  0
    2.0439    2.1938    5.9364 H   0  0  0  0  0  0  0  0  0  0  0  0
    1.5247    1.1985    7.3138 H   0  0  0  0  0  0  0  0  0  0  0  0
    2.8989   -2.2805    4.9450 H   0  0  0  0  0  0  0  0  0  0  0  0
    1.9432   -0.6915    3.2867 H   0  0  0  0  0  0  0  0  0  0  0  0
    0.7694   -1.7608    2.2569 H   0  0  0  0  0  0  0  0  0  0  0  0
    0.3550   -3.4695   -0.1261 H   0  0  0  0  0  0  0  0  0  0  0  0
   -1.2189   -2.7126   -1.4970 H   0  0  0  0  0  0  0  0  0  0  0  0
    0.0602   -0.1707   -2.6286 H   0  0  0  0  0  0  0  0  0  0  0  0
   -1.1134   -2.6403   -4.0310 H   0  0  0  0  0  0  0  0  0  0  0  0
   -1.8972   -1.0541   -3.9667 H   0  0  0  0  0  0  0  0  0  0  0  0
   -0.3606   -1.2416   -4.8156 H   0  0  0  0  0  0  0  0  0  0  0  0
    1.8522   -1.6271   -1.8920 H   0  0  0  0  0  0  0  0  0  0  0  0
    1.0745   -3.0527   -2.6140 H   0  0  0  0  0  0  0  0  0  0  0  0
    1.7135   -1.7587   -3.6391 H   0  0  0  0  0  0  0  0  0  0  0  0
   -4.0056   -0.7721    1.8432 H   0  0  0  0  0  0  0  0  0  0  0  0
   -3.6275    0.6787    0.9324 H   0  0  0  0  0  0  0  0  0  0  0  0
   -5.4933    1.0176    2.5352 H   0  0  0  0  0  0  0  0  0  0  0  0
   -5.9574    1.3808    0.8755 H   0  0  0  0  0  0  0  0  0  0  0  0
  -13.2646   -0.4088    3.7348 H   0  0  0  0  0  0  0  0  0  0  0  0
  -12.0214    0.6968    3.1026 H   0  0  0  0  0  0  0  0  0  0  0  0
  -13.6914    0.7590    2.5211 H   0  0  0  0  0  0  0  0  0  0  0  0
  -13.2273    0.4778    0.2893 H   0  0  0  0  0  0  0  0  0  0  0  0
  -11.4755    0.4613    0.5323 H   0  0  0  0  0  0  0  0  0  0  0  0
  -12.2990   -0.8544   -0.3381 H   0  0  0  0  0  0  0  0  0  0  0  0
  -11.7702   -1.9304    4.3183 H   0  0  0  0  0  0  0  0  0  0  0  0
  -12.8558   -3.0203    3.4264 H   0  0  0  0  0  0  0  0  0  0  0  0
  -11.1437   -3.4155    3.6305 H   0  0  0  0  0  0  0  0  0  0  0  0
  -10.7656   -3.7732    1.3396 H   0  0  0  0  0  0  0  0  0  0  0  0
  -12.4133   -3.3931    0.8231 H   0  0  0  0  0  0  0  0  0  0  0  0
  -11.0194   -2.5739    0.0883 H   0  0  0  0  0  0  0  0  0  0  0  0
   -7.7824   -1.9560    0.6634 H   0  0  0  0  0  0  0  0  0  0  0  0
   -7.4227   -0.5542   -0.3486 H   0  0  0  0  0  0  0  0  0  0  0  0
   -5.9526   -2.4474   -0.9249 H   0  0  0  0  0  0  0  0  0  0  0  0
   -5.4616   -2.6329    0.7637 H   0  0  0  0  0  0  0  0  0  0  0  0
   -1.6211    1.0096   -0.6955 H   0  0  0  0  0  0  0  0  0  0  0  0
   -1.9081    0.7810   -2.4395 H   0  0  0  0  0  0  0  0  0  0  0  0
   -3.2534    0.9955   -1.3424 H   0  0  0  0  0  0  0  0  0  0  0  0
    1.3413   -4.7520    1.8421 H   0  0  0  0  0  0  0  0  0  0  0  0
    1.6278   -3.8596    3.3311 H   0  0  0  0  0  0  0  0  0  0  0  0
   -0.3400   -4.9590    3.7654 H   0  0  0  0  0  0  0  0  0  0  0  0
   -0.5464   -2.5173    4.1775 H   0  0  0  0  0  0  0  0  0  0  0  0
   -1.3789   -2.2927    2.6176 H   0  0  0  0  0  0  0  0  0  0  0  0
   -4.1902   -4.5939    3.4610 H   0  0  0  0  0  0  0  0  0  0  0  0
   -3.6038   -3.4997    2.1800 H   0  0  0  0  0  0  0  0  0  0  0  0
   -2.2821   -6.0844    3.1864 H   0  0  0  0  0  0  0  0  0  0  0  0
   -3.0093   -5.7931    1.6006 H   0  0  0  0  0  0  0  0  0  0  0  0
    5.1850   -2.5311    1.4296 H   0  0  0  0  0  0  0  0  0  0  0  0
    5.2216   -0.8415    1.9539 H   0  0  0  0  0  0  0  0  0  0  0  0
    5.1640   -3.3417    3.7434 H   0  0  0  0  0  0  0  0  0  0  0  0
    6.5376   -2.2534    3.5383 H   0  0  0  0  0  0  0  0  0  0  0  0
    5.3494   -0.4380    4.6405 H   0  0  0  0  0  0  0  0  0  0  0  0
    5.2307   -1.8613    5.6622 H   0  0  0  0  0  0  0  0  0  0  0  0
   -6.2593   -0.7945    4.9846 H   0  0  0  0  0  0  0  0  0  0  0  0
   -5.2041   -2.7325    3.9647 H   0  0  0  0  0  0  0  0  0  0  0  0
   -1.4128   -1.5343    5.6262 H   0  0  0  0  0  0  0  0  0  0  0  0
  1  2  1  0
  2  3  1  0
  2  5  1  0
  3  4  1  0
  5  6  2  0
  5 10  1  0
  6  7  1  0
  7  8  2  0
  8  9  1  0
  9 10  2  0
 10 11  1  0
 11 12  1  0
 11 15  2  0
 12 13  1  0
 12 68  1  0
 13 14  1  0
 15 16  1  0
 15 67  1  0
 16 17  1  0
 17 18  1  0
 17 19  1  0
 17 20  1  0
 20 21  1  0
 21 22  1  0
 22 23  1  0
 22 66  2  0
 23 24  1  0
 23 65  1  0
 24 25  1  0
 25 26  1  0
 25 63  1  0
 26 27  1  0
 26 62  2  0
 27 28  1  0
 27 55  1  0
 28 29  1  0
 29 30  1  0
 29 54  2  0
 30 31  1  0
 30 34  1  0
 31 32  1  0
 31 33  1  0
 34 35  1  0
 34 53  1  0
 35 36  1  0
 35 52  2  0
 36 37  1  0
 36 51  1  0
 36 73  1  0
 37 38  1  0
 38 39  1  0
 39 40  1  0
 39 50  1  0
 40 41  1  0
 40 49  2  0
 42 43  1  0
 43 44  1  0
 43 47  1  0
 43 48  1  0
 44 45  1  0
 44 46  1  0
 50 51  1  0
 55 56  1  0
 56 57  1  0
 56 61  1  0
 57 58  1  0
 58 59  1  0
 58 71  1  0
 59 60  1  0
 60 61  1  0
 63 64  1  0
 64 65  1  0
 67 68  2  0
 67 72  1  0
 68 69  1  0
 69 70  2  0
 70 71  1  0
 71 72  2  0
 41 42  3  0
  1 74  1  0
  1 75  1  0
  1 76  1  0
  2 77  1  6
  4 78  1  0
  4 79  1  0
  4 80  1  0
  7 81  1  0
  8 82  1  0
  9 83  1  0
 13 84  1  0
 13 85  1  0
 14 86  1  0
 14 87  1  0
 14 88  1  0
 16 89  1  0
 16 90  1  0
 18 91  1  0
 18 92  1  0
 18 93  1  0
 19 94  1  0
 19 95  1  0
 19 96  1  0
 20 97  1  0
 20 98  1  0
 23 99  1  1
 24100  1  0
 27101  1  1
 28102  1  0
 30103  1  6
 31104  1  0
 32105  1  0
 32106  1  0
 32107  1  0
 33108  1  0
 33109  1  0
 33110  1  0
 37111  1  0
 37112  1  0
 38113  1  0
 38114  1  0
 45115  1  0
 45116  1  0
 45117  1  0
 46118  1  0
 46119  1  0
 46120  1  0
 47121  1  0
 47122  1  0
 47123  1  0
 48124  1  0
 48125  1  0
 48126  1  0
 50127  1  0
 50128  1  0
 51129  1  0
 51130  1  0
 53131  1  0
 53132  1  0
 53133  1  0
 55134  1  0
 55135  1  0
 56136  1  1
 57137  1  0
 57138  1  0
 59139  1  0
 59140  1  0
 60141  1  0
 60142  1  0
 63143  1  0
 63144  1  0
 64145  1  0
 64146  1  0
 65147  1  0
 65148  1  0
 69149  1  0
 70150  1  0
 72151  1  0
M  END
$$$$
