 energy: -221.289897491435 gnorm: 0.000269327592 xtb: 6.7.1 (edcfbbe)
          08232518343D

151157  0     0  0            999 V2000
    3.4534    2.6618   -6.5176 C   0  0  0  0  0  0  0  0  0  0  0  0
    4.4614    2.3347   -5.4085 C   0  0  0  0  0  0  0  0  0  0  0  0
    4.0763    1.1944   -4.6578 O   0  0  0  0  0  0  0  0  0  0  0  0
    4.5758   -0.0157   -5.1601 C   0  0  0  0  0  0  0  0  0  0  0  0
    4.6457    3.5390   -4.5111 C   0  0  0  0  0  0  0  0  0  0  0  0
    5.7729    4.1962   -4.7557 N   0  0  0  0  0  0  0  0  0  0  0  0
    6.0316    5.3223   -4.1196 C   0  0  0  0  0  0  0  0  0  0  0  0
    5.1601    5.8810   -3.1995 C   0  0  0  0  0  0  0  0  0  0  0  0
    3.9915    5.1953   -2.9279 C   0  0  0  0  0  0  0  0  0  0  0  0
    3.7129    3.9866   -3.5684 C   0  0  0  0  0  0  0  0  0  0  0  0
    2.4599    3.2998   -3.2206 C   0  0  0  0  0  0  0  0  0  0  0  0
    1.2606    3.8196   -3.6561 N   0  0  0  0  0  0  0  0  0  0  0  0
    1.0797    4.9267   -4.5579 C   0  0  0  0  0  0  0  0  0  0  0  0
    0.5705    6.1758   -3.8393 C   0  0  0  0  0  0  0  0  0  0  0  0
    2.2395    2.2298   -2.3825 C   0  0  0  0  0  0  0  0  0  0  0  0
    3.2286    1.3339   -1.7050 C   0  0  0  0  0  0  0  0  0  0  0  0
    3.7077    1.7609   -0.2988 C   0  0  0  0  0  0  0  0  0  0  0  0
    4.3909    3.1276   -0.3641 C   0  0  0  0  0  0  0  0  0  0  0  0
    4.7133    0.7221    0.2042 C   0  0  0  0  0  0  0  0  0  0  0  0
    2.5310    1.8900    0.6917 C   0  0  0  0  0  0  0  0  0  0  0  0
    2.1642    0.6755    1.3614 O   0  0  0  0  0  0  0  0  0  0  0  0
    2.6254    0.5144    2.5989 C   0  0  0  0  0  0  0  0  0  0  0  0
    2.0170   -0.7105    3.2731 C   0  0  0  0  0  0  0  0  0  0  0  0
    2.1746   -1.9340    2.4987 N   0  0  0  0  0  0  0  0  0  0  0  0
    1.3941   -2.9472    3.0691 N   0  0  0  0  0  0  0  0  0  0  0  0
    0.0864   -3.1830    2.8161 C   0  0  0  0  0  0  0  0  0  0  0  0
   -0.5267   -2.4034    1.6367 C   0  0  0  0  0  0  0  0  0  0  0  0
   -0.5923   -3.2809    0.4852 N   0  0  0  0  0  0  0  0  0  0  0  0
    0.4357   -3.3980   -0.3654 C   0  0  0  0  0  0  0  0  0  0  0  0
    0.2213   -4.3984   -1.5039 C   0  0  0  0  0  0  0  0  0  0  0  0
    0.9092   -5.7386   -1.2007 C   0  0  0  0  0  0  0  0  0  0  0  0
    0.5710   -6.7545   -2.2909 C   0  0  0  0  0  0  0  0  0  0  0  0
    0.4509   -6.2670    0.1584 C   0  0  0  0  0  0  0  0  0  0  0  0
    0.6550   -3.7690   -2.7537 N   0  0  0  0  0  0  0  0  0  0  0  0
   -0.2835   -3.0188   -3.3586 C   0  0  0  0  0  0  0  0  0  0  0  0
    0.0536   -2.2191   -4.6297 C   0  0  0  0  0  0  0  0  0  0  0  0
    0.8256   -0.9390   -4.2974 C   0  0  0  0  0  0  0  0  0  0  0  0
    1.0663   -0.1220   -5.5683 C   0  0  0  0  0  0  0  0  0  0  0  0
   -0.2004    0.1942   -6.1804 N   0  0  0  0  0  0  0  0  0  0  0  0
   -0.6362    1.4724   -6.2437 C   0  0  0  0  0  0  0  0  0  0  0  0
   -2.0441    1.6265   -6.5145 C   0  0  0  0  0  0  0  0  0  0  0  0
   -3.2138    1.9123   -6.5436 C   0  0  0  0  0  0  0  0  0  0  0  0
   -4.6502    2.1448   -6.6896 C   0  0  0  0  0  0  0  0  0  0  0  0
   -5.1061    1.8753   -8.0633 N   0  0  0  0  0  0  0  0  0  0  0  0
   -4.5603    2.7914   -9.0484 C   0  0  0  0  0  0  0  0  0  0  0  0
   -4.9003    0.5050   -8.4906 C   0  0  0  0  0  0  0  0  0  0  0  0
   -4.9514    3.6025   -6.3077 C   0  0  0  0  0  0  0  0  0  0  0  0
   -5.3927    1.2262   -5.7031 C   0  0  0  0  0  0  0  0  0  0  0  0
    0.0884    2.4367   -6.0604 O   0  0  0  0  0  0  0  0  0  0  0  0
   -0.9736   -0.9619   -6.5554 C   0  0  0  0  0  0  0  0  0  0  0  0
   -1.2498   -1.8552   -5.3481 C   0  0  0  0  0  0  0  0  0  0  0  0
   -1.4246   -2.9498   -2.9208 O   0  0  0  0  0  0  0  0  0  0  0  0
    2.0733   -3.7678   -3.0387 C   0  0  0  0  0  0  0  0  0  0  0  0
    1.4643   -2.7474   -0.2481 O   0  0  0  0  0  0  0  0  0  0  0  0
   -1.9108   -1.8770    2.0110 C   0  0  0  0  0  0  0  0  0  0  0  0
   -2.5894   -1.0566    0.9019 C   0  0  0  0  0  0  0  0  0  0  0  0
   -1.5773   -0.3349    0.0101 C   0  0  0  0  0  0  0  0  0  0  0  0
   -2.2455    0.4349   -1.0198 N   0  0  0  0  0  0  0  0  0  0  0  0
   -3.1093   -0.4457   -1.7979 C   0  0  0  0  0  0  0  0  0  0  0  0
   -4.0777   -1.1708   -0.8634 C   0  0  0  0  0  0  0  0  0  0  0  0
   -3.3959   -1.9159    0.1197 O   0  0  0  0  0  0  0  0  0  0  0  0
   -0.5539   -4.0212    3.4240 O   0  0  0  0  0  0  0  0  0  0  0  0
    1.9843   -3.3779    4.3235 C   0  0  0  0  0  0  0  0  0  0  0  0
    1.9873   -2.1906    5.2918 C   0  0  0  0  0  0  0  0  0  0  0  0
    2.6565   -0.9803    4.6395 C   0  0  0  0  0  0  0  0  0  0  0  0
    3.3584    1.2811    3.1659 O   0  0  0  0  0  0  0  0  0  0  0  0
    0.8236    2.0687   -2.3231 C   0  0  0  0  0  0  0  0  0  0  0  0
    0.2469    3.0664   -3.1384 C   0  0  0  0  0  0  0  0  0  0  0  0
   -1.1337    3.1373   -3.2990 C   0  0  0  0  0  0  0  0  0  0  0  0
   -1.9177    2.2363   -2.6156 C   0  0  0  0  0  0  0  0  0  0  0  0
   -1.3667    1.2526   -1.7719 C   0  0  0  0  0  0  0  0  0  0  0  0
    0.0092    1.1585   -1.6489 C   0  0  0  0  0  0  0  0  0  0  0  0
    0.8111   -3.0065   -5.5024 F   0  0  0  0  0  0  0  0  0  0  0  0
    2.4581    2.8039   -6.1048 H   0  0  0  0  0  0  0  0  0  0  0  0
    3.7621    3.5686   -7.0313 H   0  0  0  0  0  0  0  0  0  0  0  0
    3.4167    1.8503   -7.2412 H   0  0  0  0  0  0  0  0  0  0  0  0
    5.4451    2.1531   -5.8677 H   0  0  0  0  0  0  0  0  0  0  0  0
    4.2474   -0.7929   -4.4719 H   0  0  0  0  0  0  0  0  0  0  0  0
    4.1935   -0.2365   -6.1631 H   0  0  0  0  0  0  0  0  0  0  0  0
    5.6725   -0.0090   -5.1980 H   0  0  0  0  0  0  0  0  0  0  0  0
    6.9728    5.7939   -4.3703 H   0  0  0  0  0  0  0  0  0  0  0  0
    5.3883    6.8150   -2.7102 H   0  0  0  0  0  0  0  0  0  0  0  0
    3.2835    5.5887   -2.2120 H   0  0  0  0  0  0  0  0  0  0  0  0
    2.0362    5.1408   -5.0410 H   0  0  0  0  0  0  0  0  0  0  0  0
    0.3660    4.6191   -5.3270 H   0  0  0  0  0  0  0  0  0  0  0  0
    1.3033    6.5353   -3.1208 H   0  0  0  0  0  0  0  0  0  0  0  0
    0.3814    6.9650   -4.5622 H   0  0  0  0  0  0  0  0  0  0  0  0
   -0.3528    5.9587   -3.3084 H   0  0  0  0  0  0  0  0  0  0  0  0
    2.7776    0.3428   -1.6165 H   0  0  0  0  0  0  0  0  0  0  0  0
    4.1073    1.2477   -2.3444 H   0  0  0  0  0  0  0  0  0  0  0  0
    4.8640    3.3614    0.5873 H   0  0  0  0  0  0  0  0  0  0  0  0
    5.1525    3.1328   -1.1398 H   0  0  0  0  0  0  0  0  0  0  0  0
    3.6629    3.9019   -0.5882 H   0  0  0  0  0  0  0  0  0  0  0  0
    5.0480    0.9699    1.2092 H   0  0  0  0  0  0  0  0  0  0  0  0
    4.2696   -0.2715    0.2217 H   0  0  0  0  0  0  0  0  0  0  0  0
    5.5802    0.7002   -0.4519 H   0  0  0  0  0  0  0  0  0  0  0  0
    2.7928    2.6178    1.4663 H   0  0  0  0  0  0  0  0  0  0  0  0
    1.6333    2.2217    0.1665 H   0  0  0  0  0  0  0  0  0  0  0  0
    0.9459   -0.4594    3.4178 H   0  0  0  0  0  0  0  0  0  0  0  0
    2.0220   -1.8524    1.4952 H   0  0  0  0  0  0  0  0  0  0  0  0
    0.1231   -1.5654    1.3751 H   0  0  0  0  0  0  0  0  0  0  0  0
   -1.4639   -3.7632    0.3309 H   0  0  0  0  0  0  0  0  0  0  0  0
   -0.8534   -4.5774   -1.6155 H   0  0  0  0  0  0  0  0  0  0  0  0
    1.9906   -5.5852   -1.1541 H   0  0  0  0  0  0  0  0  0  0  0  0
   -0.4909   -6.9892   -2.2639 H   0  0  0  0  0  0  0  0  0  0  0  0
    0.8055   -6.3741   -3.2816 H   0  0  0  0  0  0  0  0  0  0  0  0
    1.1288   -7.6745   -2.1335 H   0  0  0  0  0  0  0  0  0  0  0  0
   -0.6310   -6.3780    0.1865 H   0  0  0  0  0  0  0  0  0  0  0  0
    0.8961   -7.2423    0.3397 H   0  0  0  0  0  0  0  0  0  0  0  0
    0.7512   -5.6045    0.9662 H   0  0  0  0  0  0  0  0  0  0  0  0
    0.2278   -0.3524   -3.5966 H   0  0  0  0  0  0  0  0  0  0  0  0
    1.7815   -1.1558   -3.8245 H   0  0  0  0  0  0  0  0  0  0  0  0
    1.5802    0.8054   -5.3157 H   0  0  0  0  0  0  0  0  0  0  0  0
    1.6757   -0.7005   -6.2716 H   0  0  0  0  0  0  0  0  0  0  0  0
   -4.9091    3.8024   -8.8547 H   0  0  0  0  0  0  0  0  0  0  0  0
   -3.4607    2.7886   -9.0746 H   0  0  0  0  0  0  0  0  0  0  0  0
   -4.9283    2.4962  -10.0300 H   0  0  0  0  0  0  0  0  0  0  0  0
   -5.4202   -0.1808   -7.8274 H   0  0  0  0  0  0  0  0  0  0  0  0
   -5.3262    0.3915   -9.4868 H   0  0  0  0  0  0  0  0  0  0  0  0
   -3.8370    0.2225   -8.5354 H   0  0  0  0  0  0  0  0  0  0  0  0
   -4.7990    3.7373   -5.2396 H   0  0  0  0  0  0  0  0  0  0  0  0
   -4.2937    4.2946   -6.8260 H   0  0  0  0  0  0  0  0  0  0  0  0
   -5.9853    3.8340   -6.5502 H   0  0  0  0  0  0  0  0  0  0  0  0
   -5.2349    1.5781   -4.6867 H   0  0  0  0  0  0  0  0  0  0  0  0
   -6.4564    1.2486   -5.9242 H   0  0  0  0  0  0  0  0  0  0  0  0
   -5.0343    0.2016   -5.7570 H   0  0  0  0  0  0  0  0  0  0  0  0
   -1.9151   -0.6400   -7.0042 H   0  0  0  0  0  0  0  0  0  0  0  0
   -0.4025   -1.5305   -7.3011 H   0  0  0  0  0  0  0  0  0  0  0  0
   -1.7510   -2.7700   -5.6673 H   0  0  0  0  0  0  0  0  0  0  0  0
   -1.8960   -1.3382   -4.6395 H   0  0  0  0  0  0  0  0  0  0  0  0
    2.6051   -3.3082   -2.2028 H   0  0  0  0  0  0  0  0  0  0  0  0
    2.4284   -4.7895   -3.1719 H   0  0  0  0  0  0  0  0  0  0  0  0
    2.2910   -3.2243   -3.9490 H   0  0  0  0  0  0  0  0  0  0  0  0
   -2.5571   -2.7195    2.2631 H   0  0  0  0  0  0  0  0  0  0  0  0
   -1.8060   -1.2562    2.9023 H   0  0  0  0  0  0  0  0  0  0  0  0
   -3.2460   -0.2996    1.3666 H   0  0  0  0  0  0  0  0  0  0  0  0
   -0.9825    0.3481    0.6211 H   0  0  0  0  0  0  0  0  0  0  0  0
   -0.9311   -1.0913   -0.4570 H   0  0  0  0  0  0  0  0  0  0  0  0
   -3.6703    0.1409   -2.5258 H   0  0  0  0  0  0  0  0  0  0  0  0
   -2.5168   -1.2092   -2.3238 H   0  0  0  0  0  0  0  0  0  0  0  0
   -4.7402   -0.4393   -0.3744 H   0  0  0  0  0  0  0  0  0  0  0  0
   -4.6764   -1.8878   -1.4268 H   0  0  0  0  0  0  0  0  0  0  0  0
    1.3923   -4.2065    4.7115 H   0  0  0  0  0  0  0  0  0  0  0  0
    3.0045   -3.7061    4.1160 H   0  0  0  0  0  0  0  0  0  0  0  0
    0.9537   -1.9458    5.5487 H   0  0  0  0  0  0  0  0  0  0  0  0
    2.5107   -2.4626    6.2081 H   0  0  0  0  0  0  0  0  0  0  0  0
    3.7165   -1.1807    4.4809 H   0  0  0  0  0  0  0  0  0  0  0  0
    2.5667   -0.0979    5.2724 H   0  0  0  0  0  0  0  0  0  0  0  0
   -1.5869    3.8719   -3.9465 H   0  0  0  0  0  0  0  0  0  0  0  0
   -2.9919    2.2924   -2.7085 H   0  0  0  0  0  0  0  0  0  0  0  0
    0.4822    0.4008   -1.0463 H   0  0  0  0  0  0  0  0  0  0  0  0
  1  2  1  0  0  0  0
  2  3  1  0  0  0  0
  2  5  1  0  0  0  0
  3  4  1  0  0  0  0
  5  6  2  0  0  0  0
  5 10  1  0  0  0  0
  6  7  1  0  0  0  0
  7  8  2  0  0  0  0
  8  9  1  0  0  0  0
  9 10  2  0  0  0  0
 10 11  1  0  0  0  0
 11 12  1  0  0  0  0
 11 15  2  0  0  0  0
 12 13  1  0  0  0  0
 12 68  1  0  0  0  0
 13 14  1  0  0  0  0
 15 16  1  0  0  0  0
 15 67  1  0  0  0  0
 16 17  1  0  0  0  0
 17 18  1  0  0  0  0
 17 19  1  0  0  0  0
 17 20  1  0  0  0  0
 20 21  1  0  0  0  0
 21 22  1  0  0  0  0
 22 23  1  0  0  0  0
 22 66  2  0  0  0  0
 23 24  1  0  0  0  0
 23 65  1  0  0  0  0
 24 25  1  0  0  0  0
 25 26  1  0  0  0  0
 25 63  1  0  0  0  0
 26 27  1  0  0  0  0
 26 62  2  0  0  0  0
 27 28  1  0  0  0  0
 27 55  1  0  0  0  0
 28 29  1  0  0  0  0
 29 30  1  0  0  0  0
 29 54  2  0  0  0  0
 30 31  1  0  0  0  0
 30 34  1  0  0  0  0
 31 32  1  0  0  0  0
 31 33  1  0  0  0  0
 34 35  1  0  0  0  0
 34 53  1  0  0  0  0
 35 36  1  0  0  0  0
 35 52  2  0  0  0  0
 36 37  1  0  0  0  0
 36 51  1  0  0  0  0
 36 73  1  0  0  0  0
 37 38  1  0  0  0  0
 38 39  1  0  0  0  0
 39 40  1  0  0  0  0
 39 50  1  0  0  0  0
 40 41  1  0  0  0  0
 40 49  2  0  0  0  0
 42 43  1  0  0  0  0
 43 44  1  0  0  0  0
 43 47  1  0  0  0  0
 43 48  1  0  0  0  0
 44 45  1  0  0  0  0
 44 46  1  0  0  0  0
 50 51  1  0  0  0  0
 55 56  1  0  0  0  0
 56 57  1  0  0  0  0
 56 61  1  0  0  0  0
 57 58  1  0  0  0  0
 58 59  1  0  0  0  0
 58 71  1  0  0  0  0
 59 60  1  0  0  0  0
 60 61  1  0  0  0  0
 63 64  1  0  0  0  0
 64 65  1  0  0  0  0
 67 68  2  0  0  0  0
 67 72  1  0  0  0  0
 68 69  1  0  0  0  0
 69 70  2  0  0  0  0
 70 71  1  0  0  0  0
 71 72  2  0  0  0  0
 41 42  3  0  0  0  0
  1 74  1  0  0  0  0
  1 75  1  0  0  0  0
  1 76  1  0  0  0  0
  2 77  1  0  0  0  0
  4 78  1  0  0  0  0
  4 79  1  0  0  0  0
  4 80  1  0  0  0  0
  7 81  1  0  0  0  0
  8 82  1  0  0  0  0
  9 83  1  0  0  0  0
 13 84  1  0  0  0  0
 13 85  1  0  0  0  0
 14 86  1  0  0  0  0
 14 87  1  0  0  0  0
 14 88  1  0  0  0  0
 16 89  1  0  0  0  0
 16 90  1  0  0  0  0
 18 91  1  0  0  0  0
 18 92  1  0  0  0  0
 18 93  1  0  0  0  0
 19 94  1  0  0  0  0
 19 95  1  0  0  0  0
 19 96  1  0  0  0  0
 20 97  1  0  0  0  0
 20 98  1  0  0  0  0
 23 99  1  0  0  0  0
 24100  1  0  0  0  0
 27101  1  0  0  0  0
 28102  1  0  0  0  0
 30103  1  0  0  0  0
 31104  1  0  0  0  0
 32105  1  0  0  0  0
 32106  1  0  0  0  0
 32107  1  0  0  0  0
 33108  1  0  0  0  0
 33109  1  0  0  0  0
 33110  1  0  0  0  0
 37111  1  0  0  0  0
 37112  1  0  0  0  0
 38113  1  0  0  0  0
 38114  1  0  0  0  0
 45115  1  0  0  0  0
 45116  1  0  0  0  0
 45117  1  0  0  0  0
 46118  1  0  0  0  0
 46119  1  0  0  0  0
 46120  1  0  0  0  0
 47121  1  0  0  0  0
 47122  1  0  0  0  0
 47123  1  0  0  0  0
 48124  1  0  0  0  0
 48125  1  0  0  0  0
 48126  1  0  0  0  0
 50127  1  0  0  0  0
 50128  1  0  0  0  0
 51129  1  0  0  0  0
 51130  1  0  0  0  0
 53131  1  0  0  0  0
 53132  1  0  0  0  0
 53133  1  0  0  0  0
 55134  1  0  0  0  0
 55135  1  0  0  0  0
 56136  1  0  0  0  0
 57137  1  0  0  0  0
 57138  1  0  0  0  0
 59139  1  0  0  0  0
 59140  1  0  0  0  0
 60141  1  0  0  0  0
 60142  1  0  0  0  0
 63143  1  0  0  0  0
 63144  1  0  0  0  0
 64145  1  0  0  0  0
 64146  1  0  0  0  0
 65147  1  0  0  0  0
 65148  1  0  0  0  0
 69149  1  0  0  0  0
 70150  1  0  0  0  0
 72151  1  0  0  0  0
M  END
$$$$
