mol_ETKDG3_17
  PyMOL3.1          3D                             0

 73 79  0  0  0  0  0  0  0  0999 V2000
    3.2710    5.2059  -10.0213 C   0  0  0  0  0  0  0  0  0  0  0  0
    2.5375    4.8502   -8.7486 C   0  0  0  0  0  0  0  0  0  0  0  0
    2.5622    5.8974   -7.8588 O   0  0  0  0  0  0  0  0  0  0  0  0
    3.8168    6.4836   -7.5847 C   0  0  0  0  0  0  0  0  0  0  0  0
    1.1488    4.4574   -9.0330 C   0  0  0  0  0  0  0  0  0  0  0  0
    0.7312    4.7038  -10.2541 N   0  0  0  0  0  0  0  0  0  0  0  0
   -0.4984    4.4237  -10.6473 C   0  0  0  0  0  0  0  0  0  0  0  0
   -1.3901    3.8313   -9.7764 C   0  0  0  0  0  0  0  0  0  0  0  0
   -0.9717    3.5442   -8.4997 C   0  0  0  0  0  0  0  0  0  0  0  0
    0.3065    3.8867   -8.1070 C   0  0  0  0  0  0  0  0  0  0  0  0
    0.7095    3.5595   -6.7419 C   0  0  0  0  0  0  0  0  0  0  0  0
    0.1801    4.1260   -5.6298 N   0  0  0  0  0  0  0  0  0  0  0  0
   -0.7585    5.2499   -5.5683 C   0  0  0  0  0  0  0  0  0  0  0  0
   -2.1687    4.7783   -5.2545 C   0  0  0  0  0  0  0  0  0  0  0  0
    1.6666    2.6332   -6.3594 C   0  0  0  0  0  0  0  0  0  0  0  0
    2.5999    1.8932   -7.2450 C   0  0  0  0  0  0  0  0  0  0  0  0
    2.0854    0.4984   -7.7529 C   0  0  0  0  0  0  0  0  0  0  0  0
    2.6729    0.1818   -9.1525 C   0  0  0  0  0  0  0  0  0  0  0  0
    0.5691    0.4292   -7.8300 C   0  0  0  0  0  0  0  0  0  0  0  0
    2.4688   -0.5160   -6.8479 C   0  0  0  0  0  0  0  0  0  0  0  0
    3.8584   -0.4276   -6.3115 O   0  0  0  0  0  0  0  0  0  0  0  0
    4.3878   -1.3591   -5.4464 C   0  0  0  0  0  0  0  0  0  0  0  0
    5.8011   -1.1040   -5.0607 C   0  0  0  0  0  0  0  0  0  0  0  0
    6.1204   -2.0059   -3.9814 N   0  0  0  0  0  0  0  0  0  0  0  0
    7.4184   -1.9431   -3.5637 N   0  0  0  0  0  0  0  0  0  0  0  0
    7.7345   -1.5124   -2.3090 C   0  0  0  0  0  0  0  0  0  0  0  0
    6.5939   -1.1504   -1.3843 C   0  0  0  0  0  0  0  0  0  0  0  0
    6.8771   -1.4647   -0.0007 N   0  0  0  0  0  0  0  0  0  0  0  0
    6.5621   -2.6227    0.5854 C   0  0  0  0  0  0  0  0  0  0  0  0
    6.9198   -2.7074    2.0324 C   0  0  0  0  0  0  0  0  0  0  0  0
    7.7747   -3.9461    2.4237 C   0  0  0  0  0  0  0  0  0  0  0  0
    8.0305   -3.9353    3.9298 C   0  0  0  0  0  0  0  0  0  0  0  0
    9.1179   -3.9156    1.6943 C   0  0  0  0  0  0  0  0  0  0  0  0
    5.7030   -2.7005    2.8238 N   0  0  0  0  0  0  0  0  0  0  0  0
    5.4518   -1.5892    3.5656 C   0  0  0  0  0  0  0  0  0  0  0  0
    4.3693   -1.6491    4.6181 C   0  0  0  0  0  0  0  0  0  0  0  0
    4.9323   -2.4509    5.7642 C   0  0  0  0  0  0  0  0  0  0  0  0
    3.9427   -2.5693    6.8687 C   0  0  0  0  0  0  0  0  0  0  0  0
    3.6940   -1.2203    7.3036 N   0  0  0  0  0  0  0  0  0  0  0  0
    4.2031   -0.8839    8.5362 C   0  0  0  0  0  0  0  0  0  0  0  0
    4.5168    0.4607    8.8218 C   0  0  0  0  0  0  0  0  0  0  0  0
    4.2146    1.5820    8.8348 C   0  0  0  0  0  0  0  0  0  0  0  0
    4.9703    2.8571    9.0721 C   0  0  0  0  0  0  0  0  0  0  0  0
    6.3464    2.6898    8.5600 N   0  0  0  0  0  0  0  0  0  0  0  0
    6.4233    2.4481    7.1284 C   0  0  0  0  0  0  0  0  0  0  0  0
    7.3101    3.7086    8.9908 C   0  0  0  0  0  0  0  0  0  0  0  0
    4.2634    4.0267    8.3612 C   0  0  0  0  0  0  0  0  0  0  0  0
    4.9871    3.1186   10.5749 C   0  0  0  0  0  0  0  0  0  0  0  0
    4.4474   -1.7246    9.3803 O   0  0  0  0  0  0  0  0  0  0  0  0
    3.0753   -0.3548    6.2978 C   0  0  0  0  0  0  0  0  0  0  0  0
    3.9870   -0.2466    5.1226 C   0  0  0  0  0  0  0  0  0  0  0  0
    6.1122   -0.5712    3.4216 O   0  0  0  0  0  0  0  0  0  0  0  0
    4.8540   -3.8942    2.7791 C   0  0  0  0  0  0  0  0  0  0  0  0
    5.9980   -3.5285   -0.0231 O   0  0  0  0  0  0  0  0  0  0  0  0
    6.3716    0.3577   -1.4881 C   0  0  0  0  0  0  0  0  0  0  0  0
    5.0615    0.8115   -0.9654 C   0  0  0  0  0  0  0  0  0  0  0  0
    4.0276    0.6699   -2.0676 C   0  0  0  0  0  0  0  0  0  0  0  0
    2.8433    1.3989   -1.6537 N   0  0  0  0  0  0  0  0  0  0  0  0
    2.3215    0.9416   -0.3689 C   0  0  0  0  0  0  0  0  0  0  0  0
    3.4209    0.8096    0.7068 C   0  0  0  0  0  0  0  0  0  0  0  0
    4.5845    0.1248    0.1556 O   0  0  0  0  0  0  0  0  0  0  0  0
    8.8708   -1.3442   -1.9518 O   0  0  0  0  0  0  0  0  0  0  0  0
    8.4297   -2.2553   -4.5932 C   0  0  0  0  0  0  0  0  0  0  0  0
    8.1965   -1.2737   -5.7455 C   0  0  0  0  0  0  0  0  0  0  0  0
    6.7608   -1.3322   -6.2383 C   0  0  0  0  0  0  0  0  0  0  0  0
    3.8374   -2.3796   -4.9574 O   0  0  0  0  0  0  0  0  0  0  0  0
    1.6479    2.6255   -4.9468 C   0  0  0  0  0  0  0  0  0  0  0  0
    0.7084    3.5454   -4.5369 C   0  0  0  0  0  0  0  0  0  0  0  0
    0.4870    3.7483   -3.1457 C   0  0  0  0  0  0  0  0  0  0  0  0
    1.2014    3.0306   -2.2210 C   0  0  0  0  0  0  0  0  0  0  0  0
    2.1339    2.0992   -2.6208 C   0  0  0  0  0  0  0  0  0  0  0  0
    2.3901    1.8990   -4.0083 C   0  0  0  0  0  0  0  0  0  0  0  0
    3.1984   -2.1743    4.1216 F   0  0  0  0  0  0  0  0  0  0  0  0
  1  2  1  0  0  0  0
  2  3  1  0  0  0  0
  2  5  1  0  0  0  0
  3  4  1  0  0  0  0
  5  6  4  0  0  0  0
  5 10  4  0  0  0  0
  6  7  4  0  0  0  0
  7  8  4  0  0  0  0
  8  9  4  0  0  0  0
  9 10  4  0  0  0  0
 10 11  1  0  0  0  0
 11 12  4  0  0  0  0
 11 15  4  0  0  0  0
 12 13  1  0  0  0  0
 12 68  4  0  0  0  0
 13 14  1  0  0  0  0
 15 16  1  0  0  0  0
 15 67  4  0  0  0  0
 16 17  1  0  0  0  0
 17 18  1  0  0  0  0
 17 19  1  0  0  0  0
 17 20  1  0  0  0  0
 20 21  1  0  0  0  0
 21 22  1  0  0  0  0
 22 23  1  0  0  0  0
 22 66  2  0  0  0  0
 23 24  1  0  0  0  0
 23 65  1  0  0  0  0
 24 25  1  0  0  0  0
 25 26  1  0  0  0  0
 25 63  1  0  0  0  0
 26 27  1  0  0  0  0
 26 62  2  0  0  0  0
 27 28  1  0  0  0  0
 27 55  1  0  0  0  0
 28 29  1  0  0  0  0
 29 30  1  0  0  0  0
 29 54  2  0  0  0  0
 30 31  1  0  0  0  0
 30 34  1  0  0  0  0
 31 32  1  0  0  0  0
 31 33  1  0  0  0  0
 34 35  1  0  0  0  0
 34 53  1  0  0  0  0
 35 36  1  0  0  0  0
 35 52  2  0  0  0  0
 36 37  1  0  0  0  0
 36 51  1  0  0  0  0
 36 73  1  0  0  0  0
 37 38  1  0  0  0  0
 38 39  1  0  0  0  0
 39 40  1  0  0  0  0
 39 50  1  0  0  0  0
 40 41  1  0  0  0  0
 40 49  2  0  0  0  0
 41 42  1  0  0  0  0
 42 43  1  0  0  0  0
 43 44  1  0  0  0  0
 43 47  1  0  0  0  0
 43 48  1  0  0  0  0
 44 45  1  0  0  0  0
 44 46  1  0  0  0  0
 50 51  1  0  0  0  0
 55 56  1  0  0  0  0
 56 57  1  0  0  0  0
 56 61  1  0  0  0  0
 57 58  1  0  0  0  0
 58 59  1  0  0  0  0
 58 71  1  0  0  0  0
 59 60  1  0  0  0  0
 60 61  1  0  0  0  0
 63 64  1  0  0  0  0
 64 65  1  0  0  0  0
 67 68  4  0  0  0  0
 67 72  4  0  0  0  0
 68 69  4  0  0  0  0
 69 70  4  0  0  0  0
 70 71  4  0  0  0  0
 71 72  4  0  0  0  0
M  END
$$$$
