mol_ETKDG2_13
  PyMOL3.1          3D                             0

 73 79  0  0  0  0  0  0  0  0999 V2000
    3.8907    7.0257   -8.1709 C   0  0  0  0  0  0  0  0  0  0  0  0
    3.4424    5.7026   -7.5928 C   0  0  0  0  0  0  0  0  0  0  0  0
    4.4684    4.7848   -7.7448 O   0  0  0  0  0  0  0  0  0  0  0  0
    5.6116    4.9677   -6.9163 C   0  0  0  0  0  0  0  0  0  0  0  0
    2.2326    5.1922   -8.2926 C   0  0  0  0  0  0  0  0  0  0  0  0
    2.0887    5.5751   -9.5430 N   0  0  0  0  0  0  0  0  0  0  0  0
    0.9937    5.2758  -10.2459 C   0  0  0  0  0  0  0  0  0  0  0  0
   -0.0386    4.5434   -9.6747 C   0  0  0  0  0  0  0  0  0  0  0  0
    0.0989    4.1121   -8.3863 C   0  0  0  0  0  0  0  0  0  0  0  0
    1.2517    4.4187   -7.6869 C   0  0  0  0  0  0  0  0  0  0  0  0
    1.4143    3.8905   -6.3490 C   0  0  0  0  0  0  0  0  0  0  0  0
    0.8169    4.3846   -5.2359 N   0  0  0  0  0  0  0  0  0  0  0  0
   -0.0858    5.5305   -5.1424 C   0  0  0  0  0  0  0  0  0  0  0  0
    0.6402    6.7476   -4.5672 C   0  0  0  0  0  0  0  0  0  0  0  0
    2.2084    2.8035   -6.0134 C   0  0  0  0  0  0  0  0  0  0  0  0
    3.0706    2.0109   -6.9228 C   0  0  0  0  0  0  0  0  0  0  0  0
    2.3925    0.7534   -7.5780 C   0  0  0  0  0  0  0  0  0  0  0  0
    2.8521    0.6097   -9.0499 C   0  0  0  0  0  0  0  0  0  0  0  0
    0.8787    0.8130   -7.5111 C   0  0  0  0  0  0  0  0  0  0  0  0
    2.7600   -0.4351   -6.8834 C   0  0  0  0  0  0  0  0  0  0  0  0
    4.0668   -0.4071   -6.2320 O   0  0  0  0  0  0  0  0  0  0  0  0
    4.5170   -1.3808   -5.3820 C   0  0  0  0  0  0  0  0  0  0  0  0
    5.9003   -1.1432   -4.9162 C   0  0  0  0  0  0  0  0  0  0  0  0
    6.1978   -2.1106   -3.8858 N   0  0  0  0  0  0  0  0  0  0  0  0
    7.4842   -2.0540   -3.4313 N   0  0  0  0  0  0  0  0  0  0  0  0
    7.7699   -1.7087   -2.1451 C   0  0  0  0  0  0  0  0  0  0  0  0
    6.6123   -1.4794   -1.1887 C   0  0  0  0  0  0  0  0  0  0  0  0
    6.9265   -1.8158    0.1768 N   0  0  0  0  0  0  0  0  0  0  0  0
    6.5919   -2.9694    0.7621 C   0  0  0  0  0  0  0  0  0  0  0  0
    6.9831   -3.0842    2.2038 C   0  0  0  0  0  0  0  0  0  0  0  0
    7.9003   -4.2983    2.5116 C   0  0  0  0  0  0  0  0  0  0  0  0
    8.1818   -4.3596    4.0144 C   0  0  0  0  0  0  0  0  0  0  0  0
    9.2338   -4.1548    1.7666 C   0  0  0  0  0  0  0  0  0  0  0  0
    5.8002   -3.1599    3.0546 N   0  0  0  0  0  0  0  0  0  0  0  0
    5.5731   -2.1544    3.9234 C   0  0  0  0  0  0  0  0  0  0  0  0
    4.5093   -2.2730    5.0068 C   0  0  0  0  0  0  0  0  0  0  0  0
    5.1589   -2.9708    6.1829 C   0  0  0  0  0  0  0  0  0  0  0  0
    4.2294   -3.0487    7.3607 C   0  0  0  0  0  0  0  0  0  0  0  0
    3.8717   -1.6706    7.6748 N   0  0  0  0  0  0  0  0  0  0  0  0
    4.4241   -1.0984    8.7975 C   0  0  0  0  0  0  0  0  0  0  0  0
    4.6323    0.3232    8.8531 C   0  0  0  0  0  0  0  0  0  0  0  0
    4.2811    1.4120    8.7609 C   0  0  0  0  0  0  0  0  0  0  0  0
    4.8241    2.8161    8.8038 C   0  0  0  0  0  0  0  0  0  0  0  0
    6.2342    2.8812    8.3907 N   0  0  0  0  0  0  0  0  0  0  0  0
    6.5269    2.5004    7.0271 C   0  0  0  0  0  0  0  0  0  0  0  0
    7.2474    2.5003    9.3541 C   0  0  0  0  0  0  0  0  0  0  0  0
    4.7065    3.3772   10.2246 C   0  0  0  0  0  0  0  0  0  0  0  0
    4.0196    3.7258    7.8735 C   0  0  0  0  0  0  0  0  0  0  0  0
    4.7848   -1.7695    9.7320 O   0  0  0  0  0  0  0  0  0  0  0  0
    3.1283   -0.9894    6.6332 C   0  0  0  0  0  0  0  0  0  0  0  0
    3.9980   -0.8933    5.4264 C   0  0  0  0  0  0  0  0  0  0  0  0
    6.2610   -1.1405    3.8780 O   0  0  0  0  0  0  0  0  0  0  0  0
    4.9566   -4.3556    2.9233 C   0  0  0  0  0  0  0  0  0  0  0  0
    5.9944   -3.8529    0.1574 O   0  0  0  0  0  0  0  0  0  0  0  0
    6.2716   -0.0064   -1.1997 C   0  0  0  0  0  0  0  0  0  0  0  0
    4.9320    0.2930   -0.6630 C   0  0  0  0  0  0  0  0  0  0  0  0
    3.9805    0.2458   -1.8185 C   0  0  0  0  0  0  0  0  0  0  0  0
    2.8195    0.9846   -1.4264 N   0  0  0  0  0  0  0  0  0  0  0  0
    2.1803    0.4441   -0.2422 C   0  0  0  0  0  0  0  0  0  0  0  0
    3.1741    0.0521    0.8649 C   0  0  0  0  0  0  0  0  0  0  0  0
    4.3874   -0.5444    0.3170 O   0  0  0  0  0  0  0  0  0  0  0  0
    8.8974   -1.5132   -1.7762 O   0  0  0  0  0  0  0  0  0  0  0  0
    8.5126   -2.2834   -4.4514 C   0  0  0  0  0  0  0  0  0  0  0  0
    8.3000   -1.2142   -5.5467 C   0  0  0  0  0  0  0  0  0  0  0  0
    6.8967   -1.2611   -6.0716 C   0  0  0  0  0  0  0  0  0  0  0  0
    3.9292   -2.4131   -4.9720 O   0  0  0  0  0  0  0  0  0  0  0  0
    2.0666    2.6653   -4.6167 C   0  0  0  0  0  0  0  0  0  0  0  0
    1.1929    3.6525   -4.1647 C   0  0  0  0  0  0  0  0  0  0  0  0
    0.8879    3.7441   -2.7896 C   0  0  0  0  0  0  0  0  0  0  0  0
    1.4386    2.8451   -1.9006 C   0  0  0  0  0  0  0  0  0  0  0  0
    2.2870    1.8672   -2.3482 C   0  0  0  0  0  0  0  0  0  0  0  0
    2.6282    1.7637   -3.7173 C   0  0  0  0  0  0  0  0  0  0  0  0
    3.3986   -2.9482    4.5771 F   0  0  0  0  0  0  0  0  0  0  0  0
  1  2  1  0  0  0  0
  2  3  1  0  0  0  0
  2  5  1  0  0  0  0
  3  4  1  0  0  0  0
  5  6  4  0  0  0  0
  5 10  4  0  0  0  0
  6  7  4  0  0  0  0
  7  8  4  0  0  0  0
  8  9  4  0  0  0  0
  9 10  4  0  0  0  0
 10 11  1  0  0  0  0
 11 12  4  0  0  0  0
 11 15  4  0  0  0  0
 12 13  1  0  0  0  0
 12 68  4  0  0  0  0
 13 14  1  0  0  0  0
 15 16  1  0  0  0  0
 15 67  4  0  0  0  0
 16 17  1  0  0  0  0
 17 18  1  0  0  0  0
 17 19  1  0  0  0  0
 17 20  1  0  0  0  0
 20 21  1  0  0  0  0
 21 22  1  0  0  0  0
 22 23  1  0  0  0  0
 22 66  2  0  0  0  0
 23 24  1  0  0  0  0
 23 65  1  0  0  0  0
 24 25  1  0  0  0  0
 25 26  1  0  0  0  0
 25 63  1  0  0  0  0
 26 27  1  0  0  0  0
 26 62  2  0  0  0  0
 27 28  1  0  0  0  0
 27 55  1  0  0  0  0
 28 29  1  0  0  0  0
 29 30  1  0  0  0  0
 29 54  2  0  0  0  0
 30 31  1  0  0  0  0
 30 34  1  0  0  0  0
 31 32  1  0  0  0  0
 31 33  1  0  0  0  0
 34 35  1  0  0  0  0
 34 53  1  0  0  0  0
 35 36  1  0  0  0  0
 35 52  2  0  0  0  0
 36 37  1  0  0  0  0
 36 51  1  0  0  0  0
 36 73  1  0  0  0  0
 37 38  1  0  0  0  0
 38 39  1  0  0  0  0
 39 40  1  0  0  0  0
 39 50  1  0  0  0  0
 40 41  1  0  0  0  0
 40 49  2  0  0  0  0
 41 42  1  0  0  0  0
 42 43  1  0  0  0  0
 43 44  1  0  0  0  0
 43 47  1  0  0  0  0
 43 48  1  0  0  0  0
 44 45  1  0  0  0  0
 44 46  1  0  0  0  0
 50 51  1  0  0  0  0
 55 56  1  0  0  0  0
 56 57  1  0  0  0  0
 56 61  1  0  0  0  0
 57 58  1  0  0  0  0
 58 59  1  0  0  0  0
 58 71  1  0  0  0  0
 59 60  1  0  0  0  0
 60 61  1  0  0  0  0
 63 64  1  0  0  0  0
 64 65  1  0  0  0  0
 67 68  4  0  0  0  0
 67 72  4  0  0  0  0
 68 69  4  0  0  0  0
 69 70  4  0  0  0  0
 70 71  4  0  0  0  0
 71 72  4  0  0  0  0
M  END
$$$$
