mol_bioactive_4
  PyMOL3.1          3D                             0

 73 79  0  0  0  0  0  0  0  0999 V2000
    2.4271    7.2228   -7.1946 C   0  0  0  0  0  0  0  0  0  0  0  0
    2.4345    5.6976   -7.3148 C   0  0  0  0  0  0  0  0  0  0  0  0
    3.4598    5.2504   -8.1765 O   0  0  0  0  0  0  0  0  0  0  0  0
    4.7993    5.3135   -7.7169 C   0  0  0  0  0  0  0  0  0  0  0  0
    1.1666    5.1989   -7.8845 C   0  0  0  0  0  0  0  0  0  0  0  0
    0.8650    5.6092   -9.1035 N   0  0  0  0  0  0  0  0  0  0  0  0
   -0.2918    5.2552   -9.6791 C   0  0  0  0  0  0  0  0  0  0  0  0
   -1.2129    4.4419   -9.0083 C   0  0  0  0  0  0  0  0  0  0  0  0
   -0.8979    3.9991   -7.7473 C   0  0  0  0  0  0  0  0  0  0  0  0
    0.2983    4.3719   -7.1854 C   0  0  0  0  0  0  0  0  0  0  0  0
    0.6456    3.8621   -5.8749 C   0  0  0  0  0  0  0  0  0  0  0  0
    0.0322    4.2226   -4.7125 N   0  0  0  0  0  0  0  0  0  0  0  0
   -1.0764    5.1639   -4.5445 C   0  0  0  0  0  0  0  0  0  0  0  0
   -0.6016    6.4377   -3.8363 C   0  0  0  0  0  0  0  0  0  0  0  0
    1.6503    2.9471   -5.5965 C   0  0  0  0  0  0  0  0  0  0  0  0
    2.6322    2.3434   -6.5560 C   0  0  0  0  0  0  0  0  0  0  0  0
    2.1639    1.0396   -7.2876 C   0  0  0  0  0  0  0  0  0  0  0  0
    2.8932    0.8878   -8.6488 C   0  0  0  0  0  0  0  0  0  0  0  0
    0.6762    0.9846   -7.5256 C   0  0  0  0  0  0  0  0  0  0  0  0
    2.4501   -0.1064   -6.4913 C   0  0  0  0  0  0  0  0  0  0  0  0
    3.8247   -0.1519   -5.9902 O   0  0  0  0  0  0  0  0  0  0  0  0
    4.3151   -1.1683   -5.2049 C   0  0  0  0  0  0  0  0  0  0  0  0
    5.7421   -0.9963   -4.8343 C   0  0  0  0  0  0  0  0  0  0  0  0
    6.0573   -1.9909   -3.8401 N   0  0  0  0  0  0  0  0  0  0  0  0
    7.3620   -1.9741   -3.4505 N   0  0  0  0  0  0  0  0  0  0  0  0
    7.7027   -1.6049   -2.1907 C   0  0  0  0  0  0  0  0  0  0  0  0
    6.5831   -1.2942   -1.2269 C   0  0  0  0  0  0  0  0  0  0  0  0
    6.8945   -1.6584    0.1316 N   0  0  0  0  0  0  0  0  0  0  0  0
    6.5587   -2.8201    0.6827 C   0  0  0  0  0  0  0  0  0  0  0  0
    6.9186   -2.9355    2.1323 C   0  0  0  0  0  0  0  0  0  0  0  0
    7.8309   -4.1406    2.4923 C   0  0  0  0  0  0  0  0  0  0  0  0
    8.0948   -4.1427    3.9991 C   0  0  0  0  0  0  0  0  0  0  0  0
    9.1681   -4.0373    1.7498 C   0  0  0  0  0  0  0  0  0  0  0  0
    5.6836   -3.0246    2.8816 N   0  0  0  0  0  0  0  0  0  0  0  0
    5.3248   -1.9588    3.6505 C   0  0  0  0  0  0  0  0  0  0  0  0
    4.1847   -2.1227    4.6131 C   0  0  0  0  0  0  0  0  0  0  0  0
    4.6605   -3.1021    5.6401 C   0  0  0  0  0  0  0  0  0  0  0  0
    3.6041   -3.4035    6.6264 C   0  0  0  0  0  0  0  0  0  0  0  0
    3.4199   -2.1800    7.2969 N   0  0  0  0  0  0  0  0  0  0  0  0
    3.9738   -2.1768    8.5529 C   0  0  0  0  0  0  0  0  0  0  0  0
    4.4152   -0.9993    9.1559 C   0  0  0  0  0  0  0  0  0  0  0  0
    4.2064    0.1196    9.4679 C   0  0  0  0  0  0  0  0  0  0  0  0
    5.0937    1.0782   10.2181 C   0  0  0  0  0  0  0  0  0  0  0  0
    6.3489    1.3318    9.4568 N   0  0  0  0  0  0  0  0  0  0  0  0
    6.1179    1.7688    8.0747 C   0  0  0  0  0  0  0  0  0  0  0  0
    7.3173    2.2023   10.1339 C   0  0  0  0  0  0  0  0  0  0  0  0
    4.3627    2.3959   10.4475 C   0  0  0  0  0  0  0  0  0  0  0  0
    5.4715    0.4586   11.5697 C   0  0  0  0  0  0  0  0  0  0  0  0
    4.1565   -3.2083    9.1779 O   0  0  0  0  0  0  0  0  0  0  0  0
    2.8487   -1.1187    6.4585 C   0  0  0  0  0  0  0  0  0  0  0  0
    3.7895   -0.8296    5.3139 C   0  0  0  0  0  0  0  0  0  0  0  0
    5.9343   -0.8997    3.5911 O   0  0  0  0  0  0  0  0  0  0  0  0
    4.9110   -4.2644    2.7563 C   0  0  0  0  0  0  0  0  0  0  0  0
    5.9772   -3.6903    0.0592 O   0  0  0  0  0  0  0  0  0  0  0  0
    6.3528    0.2138   -1.2412 C   0  0  0  0  0  0  0  0  0  0  0  0
    5.0992    0.6353   -0.5887 C   0  0  0  0  0  0  0  0  0  0  0  0
    4.0024    0.5625   -1.6107 C   0  0  0  0  0  0  0  0  0  0  0  0
    2.8762    1.2760   -1.0749 N   0  0  0  0  0  0  0  0  0  0  0  0
    2.4270    0.7634    0.2090 C   0  0  0  0  0  0  0  0  0  0  0  0
    3.5905    0.5625    1.1965 C   0  0  0  0  0  0  0  0  0  0  0  0
    4.6972   -0.1126    0.5235 O   0  0  0  0  0  0  0  0  0  0  0  0
    8.8490   -1.4511   -1.8654 O   0  0  0  0  0  0  0  0  0  0  0  0
    8.3442   -2.2563   -4.5163 C   0  0  0  0  0  0  0  0  0  0  0  0
    8.1167   -1.1814   -5.5935 C   0  0  0  0  0  0  0  0  0  0  0  0
    6.6712   -1.1516   -6.0490 C   0  0  0  0  0  0  0  0  0  0  0  0
    3.7246   -2.1989   -4.7779 O   0  0  0  0  0  0  0  0  0  0  0  0
    1.6207    2.7774   -4.1957 C   0  0  0  0  0  0  0  0  0  0  0  0
    0.6094    3.5770   -3.6794 C   0  0  0  0  0  0  0  0  0  0  0  0
    0.3747    3.6097   -2.2750 C   0  0  0  0  0  0  0  0  0  0  0  0
    1.1366    2.8329   -1.4452 C   0  0  0  0  0  0  0  0  0  0  0  0
    2.1265    2.0330   -1.9534 C   0  0  0  0  0  0  0  0  0  0  0  0
    2.3944    1.9940   -3.3483 C   0  0  0  0  0  0  0  0  0  0  0  0
    3.0453   -2.5498    3.9432 F   0  0  0  0  0  0  0  0  0  0  0  0
  1  2  1  0  0  0  0
  2  3  1  0  0  0  0
  2  5  1  0  0  0  0
  3  4  1  0  0  0  0
  5  6  4  0  0  0  0
  5 10  4  0  0  0  0
  6  7  4  0  0  0  0
  7  8  4  0  0  0  0
  8  9  4  0  0  0  0
  9 10  4  0  0  0  0
 10 11  1  0  0  0  0
 11 12  4  0  0  0  0
 11 15  4  0  0  0  0
 12 13  1  0  0  0  0
 12 68  4  0  0  0  0
 13 14  1  0  0  0  0
 15 16  1  0  0  0  0
 15 67  4  0  0  0  0
 16 17  1  0  0  0  0
 17 18  1  0  0  0  0
 17 19  1  0  0  0  0
 17 20  1  0  0  0  0
 20 21  1  0  0  0  0
 21 22  1  0  0  0  0
 22 23  1  0  0  0  0
 22 66  2  0  0  0  0
 23 24  1  0  0  0  0
 23 65  1  0  0  0  0
 24 25  1  0  0  0  0
 25 26  1  0  0  0  0
 25 63  1  0  0  0  0
 26 27  1  0  0  0  0
 26 62  2  0  0  0  0
 27 28  1  0  0  0  0
 27 55  1  0  0  0  0
 28 29  1  0  0  0  0
 29 30  1  0  0  0  0
 29 54  2  0  0  0  0
 30 31  1  0  0  0  0
 30 34  1  0  0  0  0
 31 32  1  0  0  0  0
 31 33  1  0  0  0  0
 34 35  1  0  0  0  0
 34 53  1  0  0  0  0
 35 36  1  0  0  0  0
 35 52  2  0  0  0  0
 36 37  1  0  0  0  0
 36 51  1  0  0  0  0
 36 73  1  0  0  0  0
 37 38  1  0  0  0  0
 38 39  1  0  0  0  0
 39 40  1  0  0  0  0
 39 50  1  0  0  0  0
 40 41  1  0  0  0  0
 40 49  2  0  0  0  0
 41 42  1  0  0  0  0
 42 43  1  0  0  0  0
 43 44  1  0  0  0  0
 43 47  1  0  0  0  0
 43 48  1  0  0  0  0
 44 45  1  0  0  0  0
 44 46  1  0  0  0  0
 50 51  1  0  0  0  0
 55 56  1  0  0  0  0
 56 57  1  0  0  0  0
 56 61  1  0  0  0  0
 57 58  1  0  0  0  0
 58 59  1  0  0  0  0
 58 71  1  0  0  0  0
 59 60  1  0  0  0  0
 60 61  1  0  0  0  0
 63 64  1  0  0  0  0
 64 65  1  0  0  0  0
 67 68  4  0  0  0  0
 67 72  4  0  0  0  0
 68 69  4  0  0  0  0
 69 70  4  0  0  0  0
 70 71  4  0  0  0  0
 71 72  4  0  0  0  0
M  END
$$$$
