mol_ETKDG0_33
  PyMOL3.1          3D                             0

 73 79  0  0  0  0  0  0  0  0999 V2000
    3.7969    7.6046   -7.0193 C   0  0  0  0  0  0  0  0  0  0  0  0
    3.5906    6.1113   -7.1240 C   0  0  0  0  0  0  0  0  0  0  0  0
    4.6653    5.4689   -7.7539 O   0  0  0  0  0  0  0  0  0  0  0  0
    5.9084    5.4181   -7.0630 C   0  0  0  0  0  0  0  0  0  0  0  0
    2.3898    5.7836   -7.9215 C   0  0  0  0  0  0  0  0  0  0  0  0
    2.3288    6.2864   -9.1445 N   0  0  0  0  0  0  0  0  0  0  0  0
    1.2463    6.0946   -9.9071 C   0  0  0  0  0  0  0  0  0  0  0  0
    0.1535    5.3555   -9.4313 C   0  0  0  0  0  0  0  0  0  0  0  0
    0.2167    4.8123   -8.1689 C   0  0  0  0  0  0  0  0  0  0  0  0
    1.3514    5.0281   -7.4047 C   0  0  0  0  0  0  0  0  0  0  0  0
    1.4591    4.4221   -6.0923 C   0  0  0  0  0  0  0  0  0  0  0  0
    0.8444    4.8656   -4.9577 N   0  0  0  0  0  0  0  0  0  0  0  0
   -0.0365    6.0217   -4.8291 C   0  0  0  0  0  0  0  0  0  0  0  0
   -1.4957    5.5633   -4.7887 C   0  0  0  0  0  0  0  0  0  0  0  0
    2.2653    3.3382   -5.7797 C   0  0  0  0  0  0  0  0  0  0  0  0
    3.1552    2.6063   -6.7082 C   0  0  0  0  0  0  0  0  0  0  0  0
    2.5001    1.3649   -7.4271 C   0  0  0  0  0  0  0  0  0  0  0  0
    3.0929    1.1907   -8.8451 C   0  0  0  0  0  0  0  0  0  0  0  0
    0.9876    1.4761   -7.5158 C   0  0  0  0  0  0  0  0  0  0  0  0
    2.7526    0.1895   -6.6714 C   0  0  0  0  0  0  0  0  0  0  0  0
    4.1205    0.0809   -6.1295 O   0  0  0  0  0  0  0  0  0  0  0  0
    4.5372   -0.9694   -5.3523 C   0  0  0  0  0  0  0  0  0  0  0  0
    5.9528   -0.8682   -4.9331 C   0  0  0  0  0  0  0  0  0  0  0  0
    6.1649   -1.8618   -3.9132 N   0  0  0  0  0  0  0  0  0  0  0  0
    7.4497   -1.9251   -3.4767 N   0  0  0  0  0  0  0  0  0  0  0  0
    7.7829   -1.5685   -2.2148 C   0  0  0  0  0  0  0  0  0  0  0  0
    6.6581   -1.1858   -1.2764 C   0  0  0  0  0  0  0  0  0  0  0  0
    6.9323   -1.5574    0.0890 N   0  0  0  0  0  0  0  0  0  0  0  0
    6.6011   -2.7251    0.6127 C   0  0  0  0  0  0  0  0  0  0  0  0
    6.9233   -2.8498    2.0691 C   0  0  0  0  0  0  0  0  0  0  0  0
    7.7884   -4.0803    2.4586 C   0  0  0  0  0  0  0  0  0  0  0  0
    8.0245   -4.0772    3.9730 C   0  0  0  0  0  0  0  0  0  0  0  0
    9.1442   -4.0256    1.7464 C   0  0  0  0  0  0  0  0  0  0  0  0
    5.6668   -2.8851    2.7884 N   0  0  0  0  0  0  0  0  0  0  0  0
    5.3425   -1.7986    3.5323 C   0  0  0  0  0  0  0  0  0  0  0  0
    4.1476   -1.8720    4.4609 C   0  0  0  0  0  0  0  0  0  0  0  0
    4.4619   -2.9071    5.5088 C   0  0  0  0  0  0  0  0  0  0  0  0
    3.3419   -3.0420    6.4837 C   0  0  0  0  0  0  0  0  0  0  0  0
    3.2835   -1.7735    7.1114 N   0  0  0  0  0  0  0  0  0  0  0  0
    3.8107   -1.7211    8.3722 C   0  0  0  0  0  0  0  0  0  0  0  0
    4.3245   -0.5112    8.8403 C   0  0  0  0  0  0  0  0  0  0  0  0
    4.3096    0.4936    9.2575 C   0  0  0  0  0  0  0  0  0  0  0  0
    5.2714    1.5995    9.6061 C   0  0  0  0  0  0  0  0  0  0  0  0
    6.6700    1.1073    9.4402 N   0  0  0  0  0  0  0  0  0  0  0  0
    7.0113    0.7686    8.0628 C   0  0  0  0  0  0  0  0  0  0  0  0
    7.7030    1.9300   10.0742 C   0  0  0  0  0  0  0  0  0  0  0  0
    5.0133    1.9664   11.0571 C   0  0  0  0  0  0  0  0  0  0  0  0
    5.0268    2.8110    8.7036 C   0  0  0  0  0  0  0  0  0  0  0  0
    3.8974   -2.7047    9.0873 O   0  0  0  0  0  0  0  0  0  0  0  0
    2.8787   -0.6750    6.2333 C   0  0  0  0  0  0  0  0  0  0  0  0
    3.8932   -0.5319    5.1495 C   0  0  0  0  0  0  0  0  0  0  0  0
    6.0064   -0.7776    3.4813 O   0  0  0  0  0  0  0  0  0  0  0  0
    4.8373   -4.0879    2.6461 C   0  0  0  0  0  0  0  0  0  0  0  0
    6.0383   -3.6057   -0.0260 O   0  0  0  0  0  0  0  0  0  0  0  0
    6.4933    0.3270   -1.3200 C   0  0  0  0  0  0  0  0  0  0  0  0
    5.2218    0.7983   -0.7079 C   0  0  0  0  0  0  0  0  0  0  0  0
    4.1080    0.6365   -1.7105 C   0  0  0  0  0  0  0  0  0  0  0  0
    2.9937    1.4346   -1.2463 N   0  0  0  0  0  0  0  0  0  0  0  0
    2.5425    1.0587    0.0842 C   0  0  0  0  0  0  0  0  0  0  0  0
    3.7178    0.8894    1.0849 C   0  0  0  0  0  0  0  0  0  0  0  0
    4.8168    0.1477    0.4685 O   0  0  0  0  0  0  0  0  0  0  0  0
    8.9234   -1.4755   -1.8546 O   0  0  0  0  0  0  0  0  0  0  0  0
    8.4403   -2.2879   -4.5096 C   0  0  0  0  0  0  0  0  0  0  0  0
    8.3296   -1.2078   -5.6078 C   0  0  0  0  0  0  0  0  0  0  0  0
    6.9105   -1.1025   -6.1096 C   0  0  0  0  0  0  0  0  0  0  0  0
    3.8906   -1.9832   -4.9637 O   0  0  0  0  0  0  0  0  0  0  0  0
    2.1140    3.1510   -4.3895 C   0  0  0  0  0  0  0  0  0  0  0  0
    1.2136    4.0950   -3.9114 C   0  0  0  0  0  0  0  0  0  0  0  0
    0.8977    4.1321   -2.5373 C   0  0  0  0  0  0  0  0  0  0  0  0
    1.4966    3.2412   -1.6721 C   0  0  0  0  0  0  0  0  0  0  0  0
    2.3904    2.3045   -2.1407 C   0  0  0  0  0  0  0  0  0  0  0  0
    2.7266    2.2525   -3.5186 C   0  0  0  0  0  0  0  0  0  0  0  0
    3.0032   -2.1713    3.7466 F   0  0  0  0  0  0  0  0  0  0  0  0
  1  2  1  0  0  0  0
  2  3  1  0  0  0  0
  2  5  1  0  0  0  0
  3  4  1  0  0  0  0
  5  6  4  0  0  0  0
  5 10  4  0  0  0  0
  6  7  4  0  0  0  0
  7  8  4  0  0  0  0
  8  9  4  0  0  0  0
  9 10  4  0  0  0  0
 10 11  1  0  0  0  0
 11 12  4  0  0  0  0
 11 15  4  0  0  0  0
 12 13  1  0  0  0  0
 12 68  4  0  0  0  0
 13 14  1  0  0  0  0
 15 16  1  0  0  0  0
 15 67  4  0  0  0  0
 16 17  1  0  0  0  0
 17 18  1  0  0  0  0
 17 19  1  0  0  0  0
 17 20  1  0  0  0  0
 20 21  1  0  0  0  0
 21 22  1  0  0  0  0
 22 23  1  0  0  0  0
 22 66  2  0  0  0  0
 23 24  1  0  0  0  0
 23 65  1  0  0  0  0
 24 25  1  0  0  0  0
 25 26  1  0  0  0  0
 25 63  1  0  0  0  0
 26 27  1  0  0  0  0
 26 62  2  0  0  0  0
 27 28  1  0  0  0  0
 27 55  1  0  0  0  0
 28 29  1  0  0  0  0
 29 30  1  0  0  0  0
 29 54  2  0  0  0  0
 30 31  1  0  0  0  0
 30 34  1  0  0  0  0
 31 32  1  0  0  0  0
 31 33  1  0  0  0  0
 34 35  1  0  0  0  0
 34 53  1  0  0  0  0
 35 36  1  0  0  0  0
 35 52  2  0  0  0  0
 36 37  1  0  0  0  0
 36 51  1  0  0  0  0
 36 73  1  0  0  0  0
 37 38  1  0  0  0  0
 38 39  1  0  0  0  0
 39 40  1  0  0  0  0
 39 50  1  0  0  0  0
 40 41  1  0  0  0  0
 40 49  2  0  0  0  0
 41 42  1  0  0  0  0
 42 43  1  0  0  0  0
 43 44  1  0  0  0  0
 43 47  1  0  0  0  0
 43 48  1  0  0  0  0
 44 45  1  0  0  0  0
 44 46  1  0  0  0  0
 50 51  1  0  0  0  0
 55 56  1  0  0  0  0
 56 57  1  0  0  0  0
 56 61  1  0  0  0  0
 57 58  1  0  0  0  0
 58 59  1  0  0  0  0
 58 71  1  0  0  0  0
 59 60  1  0  0  0  0
 60 61  1  0  0  0  0
 63 64  1  0  0  0  0
 64 65  1  0  0  0  0
 67 68  4  0  0  0  0
 67 72  4  0  0  0  0
 68 69  4  0  0  0  0
 69 70  4  0  0  0  0
 70 71  4  0  0  0  0
 71 72  4  0  0  0  0
M  END
$$$$
