mol_ETKDG0_32
  PyMOL3.1          3D                             0

 73 79  0  0  0  0  0  0  0  0999 V2000
    3.8736    5.8496   -9.3373 C   0  0  0  0  0  0  0  0  0  0  0  0
    2.8989    5.5379   -8.2775 C   0  0  0  0  0  0  0  0  0  0  0  0
    3.1581    5.7327   -7.0380 O   0  0  0  0  0  0  0  0  0  0  0  0
    4.4454    6.0699   -6.5282 C   0  0  0  0  0  0  0  0  0  0  0  0
    1.5517    5.1779   -8.6893 C   0  0  0  0  0  0  0  0  0  0  0  0
    1.2682    5.5500   -9.9200 N   0  0  0  0  0  0  0  0  0  0  0  0
    0.0812    5.3253  -10.4497 C   0  0  0  0  0  0  0  0  0  0  0  0
   -0.8995    4.6660   -9.7260 C   0  0  0  0  0  0  0  0  0  0  0  0
   -0.6242    4.2459   -8.4534 C   0  0  0  0  0  0  0  0  0  0  0  0
    0.6134    4.5065   -7.8989 C   0  0  0  0  0  0  0  0  0  0  0  0
    0.8856    4.0275   -6.5405 C   0  0  0  0  0  0  0  0  0  0  0  0
    0.2517    4.4655   -5.4062 N   0  0  0  0  0  0  0  0  0  0  0  0
   -0.7706    5.5136   -5.3145 C   0  0  0  0  0  0  0  0  0  0  0  0
   -0.1521    6.8367   -4.8534 C   0  0  0  0  0  0  0  0  0  0  0  0
    1.8116    3.0467   -6.1799 C   0  0  0  0  0  0  0  0  0  0  0  0
    2.7772    2.3575   -7.0737 C   0  0  0  0  0  0  0  0  0  0  0  0
    2.2590    1.0065   -7.7088 C   0  0  0  0  0  0  0  0  0  0  0  0
    2.9436    0.7651   -9.0836 C   0  0  0  0  0  0  0  0  0  0  0  0
    0.7507    0.9959   -7.9012 C   0  0  0  0  0  0  0  0  0  0  0  0
    2.5554   -0.0947   -6.8303 C   0  0  0  0  0  0  0  0  0  0  0  0
    3.9298   -0.1003   -6.2655 O   0  0  0  0  0  0  0  0  0  0  0  0
    4.4095   -1.1050   -5.4453 C   0  0  0  0  0  0  0  0  0  0  0  0
    5.8296   -0.9151   -5.0104 C   0  0  0  0  0  0  0  0  0  0  0  0
    6.1175   -1.9088   -3.9933 N   0  0  0  0  0  0  0  0  0  0  0  0
    7.4137   -1.8846   -3.5461 N   0  0  0  0  0  0  0  0  0  0  0  0
    7.7192   -1.5242   -2.2629 C   0  0  0  0  0  0  0  0  0  0  0  0
    6.5641   -1.2383   -1.3173 C   0  0  0  0  0  0  0  0  0  0  0  0
    6.8692   -1.5831    0.0531 N   0  0  0  0  0  0  0  0  0  0  0  0
    6.5616   -2.7568    0.6129 C   0  0  0  0  0  0  0  0  0  0  0  0
    6.9384   -2.8674    2.0687 C   0  0  0  0  0  0  0  0  0  0  0  0
    7.8392   -4.0841    2.4311 C   0  0  0  0  0  0  0  0  0  0  0  0
    8.1207   -4.0807    3.9388 C   0  0  0  0  0  0  0  0  0  0  0  0
    9.1767   -4.0058    1.6845 C   0  0  0  0  0  0  0  0  0  0  0  0
    5.7241   -2.9418    2.8657 N   0  0  0  0  0  0  0  0  0  0  0  0
    5.4354   -1.8770    3.6583 C   0  0  0  0  0  0  0  0  0  0  0  0
    4.3452   -2.0240    4.7089 C   0  0  0  0  0  0  0  0  0  0  0  0
    4.9713   -2.7752    5.8693 C   0  0  0  0  0  0  0  0  0  0  0  0
    4.0090   -2.9412    7.0039 C   0  0  0  0  0  0  0  0  0  0  0  0
    3.6410   -1.6015    7.3849 N   0  0  0  0  0  0  0  0  0  0  0  0
    4.1719   -1.1036    8.5541 C   0  0  0  0  0  0  0  0  0  0  0  0
    4.4096    0.2886    8.6509 C   0  0  0  0  0  0  0  0  0  0  0  0
    4.0818    1.4589    8.4558 C   0  0  0  0  0  0  0  0  0  0  0  0
    4.9837    2.6704    8.6525 C   0  0  0  0  0  0  0  0  0  0  0  0
    6.2532    2.4394    7.9046 N   0  0  0  0  0  0  0  0  0  0  0  0
    6.0881    2.4775    6.4503 C   0  0  0  0  0  0  0  0  0  0  0  0
    7.4072    3.2398    8.3490 C   0  0  0  0  0  0  0  0  0  0  0  0
    4.2857    3.9422    8.1525 C   0  0  0  0  0  0  0  0  0  0  0  0
    5.2757    2.8062   10.1509 C   0  0  0  0  0  0  0  0  0  0  0  0
    4.5026   -1.8346    9.4723 O   0  0  0  0  0  0  0  0  0  0  0  0
    2.9144   -0.8568    6.3600 C   0  0  0  0  0  0  0  0  0  0  0  0
    3.8274   -0.6670    5.1852 C   0  0  0  0  0  0  0  0  0  0  0  0
    6.0565   -0.8246    3.5728 O   0  0  0  0  0  0  0  0  0  0  0  0
    4.9268   -4.1701    2.7730 C   0  0  0  0  0  0  0  0  0  0  0  0
    5.9903   -3.6467    0.0009 O   0  0  0  0  0  0  0  0  0  0  0  0
    6.2394    0.2545   -1.3484 C   0  0  0  0  0  0  0  0  0  0  0  0
    4.8883    0.6034   -0.8142 C   0  0  0  0  0  0  0  0  0  0  0  0
    3.9332    0.6657   -1.9904 C   0  0  0  0  0  0  0  0  0  0  0  0
    2.7134    1.3382   -1.5598 N   0  0  0  0  0  0  0  0  0  0  0  0
    2.0886    0.6796   -0.4181 C   0  0  0  0  0  0  0  0  0  0  0  0
    3.0993    0.2984    0.6957 C   0  0  0  0  0  0  0  0  0  0  0  0
    4.3196   -0.2753    0.1244 O   0  0  0  0  0  0  0  0  0  0  0  0
    8.8563   -1.3584   -1.8925 O   0  0  0  0  0  0  0  0  0  0  0  0
    8.4338   -2.1540   -4.5764 C   0  0  0  0  0  0  0  0  0  0  0  0
    8.2434   -1.0758   -5.6696 C   0  0  0  0  0  0  0  0  0  0  0  0
    6.8155   -1.0686   -6.1825 C   0  0  0  0  0  0  0  0  0  0  0  0
    3.8033   -2.1257   -5.0321 O   0  0  0  0  0  0  0  0  0  0  0  0
    1.6987    2.9072   -4.7737 C   0  0  0  0  0  0  0  0  0  0  0  0
    0.7233    3.7922   -4.3250 C   0  0  0  0  0  0  0  0  0  0  0  0
    0.4262    3.8585   -2.9401 C   0  0  0  0  0  0  0  0  0  0  0  0
    1.0895    3.0309   -2.0438 C   0  0  0  0  0  0  0  0  0  0  0  0
    2.0517    2.1457   -2.4882 C   0  0  0  0  0  0  0  0  0  0  0  0
    2.3812    2.0789   -3.8704 C   0  0  0  0  0  0  0  0  0  0  0  0
    3.2318   -2.6659    4.2078 F   0  0  0  0  0  0  0  0  0  0  0  0
  1  2  1  0  0  0  0
  2  3  1  0  0  0  0
  2  5  1  0  0  0  0
  3  4  1  0  0  0  0
  5  6  4  0  0  0  0
  5 10  4  0  0  0  0
  6  7  4  0  0  0  0
  7  8  4  0  0  0  0
  8  9  4  0  0  0  0
  9 10  4  0  0  0  0
 10 11  1  0  0  0  0
 11 12  4  0  0  0  0
 11 15  4  0  0  0  0
 12 13  1  0  0  0  0
 12 68  4  0  0  0  0
 13 14  1  0  0  0  0
 15 16  1  0  0  0  0
 15 67  4  0  0  0  0
 16 17  1  0  0  0  0
 17 18  1  0  0  0  0
 17 19  1  0  0  0  0
 17 20  1  0  0  0  0
 20 21  1  0  0  0  0
 21 22  1  0  0  0  0
 22 23  1  0  0  0  0
 22 66  2  0  0  0  0
 23 24  1  0  0  0  0
 23 65  1  0  0  0  0
 24 25  1  0  0  0  0
 25 26  1  0  0  0  0
 25 63  1  0  0  0  0
 26 27  1  0  0  0  0
 26 62  2  0  0  0  0
 27 28  1  0  0  0  0
 27 55  1  0  0  0  0
 28 29  1  0  0  0  0
 29 30  1  0  0  0  0
 29 54  2  0  0  0  0
 30 31  1  0  0  0  0
 30 34  1  0  0  0  0
 31 32  1  0  0  0  0
 31 33  1  0  0  0  0
 34 35  1  0  0  0  0
 34 53  1  0  0  0  0
 35 36  1  0  0  0  0
 35 52  2  0  0  0  0
 36 37  1  0  0  0  0
 36 51  1  0  0  0  0
 36 73  1  0  0  0  0
 37 38  1  0  0  0  0
 38 39  1  0  0  0  0
 39 40  1  0  0  0  0
 39 50  1  0  0  0  0
 40 41  1  0  0  0  0
 40 49  2  0  0  0  0
 41 42  1  0  0  0  0
 42 43  1  0  0  0  0
 43 44  1  0  0  0  0
 43 47  1  0  0  0  0
 43 48  1  0  0  0  0
 44 45  1  0  0  0  0
 44 46  1  0  0  0  0
 50 51  1  0  0  0  0
 55 56  1  0  0  0  0
 56 57  1  0  0  0  0
 56 61  1  0  0  0  0
 57 58  1  0  0  0  0
 58 59  1  0  0  0  0
 58 71  1  0  0  0  0
 59 60  1  0  0  0  0
 60 61  1  0  0  0  0
 63 64  1  0  0  0  0
 64 65  1  0  0  0  0
 67 68  4  0  0  0  0
 67 72  4  0  0  0  0
 68 69  4  0  0  0  0
 69 70  4  0  0  0  0
 70 71  4  0  0  0  0
 71 72  4  0  0  0  0
M  END
$$$$
