mol_ETKDG1_9
  PyMOL3.1          3D                             0

 73 79  0  0  0  0  0  0  0  0999 V2000
    3.0261    7.7750   -6.8823 C   0  0  0  0  0  0  0  0  0  0  0  0
    3.0029    6.3005   -7.2228 C   0  0  0  0  0  0  0  0  0  0  0  0
    4.1288    5.8484   -7.9183 O   0  0  0  0  0  0  0  0  0  0  0  0
    4.5369    6.5692   -9.0757 C   0  0  0  0  0  0  0  0  0  0  0  0
    1.7724    5.8791   -7.9488 C   0  0  0  0  0  0  0  0  0  0  0  0
    1.5481    6.3729   -9.1603 N   0  0  0  0  0  0  0  0  0  0  0  0
    0.4452    6.0615   -9.8353 C   0  0  0  0  0  0  0  0  0  0  0  0
   -0.5115    5.2148   -9.2935 C   0  0  0  0  0  0  0  0  0  0  0  0
   -0.2906    4.6872   -8.0473 C   0  0  0  0  0  0  0  0  0  0  0  0
    0.8632    5.0188   -7.3729 C   0  0  0  0  0  0  0  0  0  0  0  0
    1.1082    4.4355   -6.0693 C   0  0  0  0  0  0  0  0  0  0  0  0
    0.4115    4.7459   -4.9442 N   0  0  0  0  0  0  0  0  0  0  0  0
   -0.7077    5.6758   -4.8153 C   0  0  0  0  0  0  0  0  0  0  0  0
   -0.3439    6.8668   -3.9262 C   0  0  0  0  0  0  0  0  0  0  0  0
    2.0925    3.4997   -5.7783 C   0  0  0  0  0  0  0  0  0  0  0  0
    3.1243    2.9326   -6.7092 C   0  0  0  0  0  0  0  0  0  0  0  0
    2.7028    1.6300   -7.4991 C   0  0  0  0  0  0  0  0  0  0  0  0
    3.6281    1.4290   -8.7285 C   0  0  0  0  0  0  0  0  0  0  0  0
    1.2661    1.6477   -7.9717 C   0  0  0  0  0  0  0  0  0  0  0  0
    2.8164    0.4879   -6.6308 C   0  0  0  0  0  0  0  0  0  0  0  0
    4.1666    0.3057   -6.0890 O   0  0  0  0  0  0  0  0  0  0  0  0
    4.5449   -0.8021   -5.3579 C   0  0  0  0  0  0  0  0  0  0  0  0
    5.9681   -0.7667   -4.9360 C   0  0  0  0  0  0  0  0  0  0  0  0
    6.1553   -1.8043   -3.9539 N   0  0  0  0  0  0  0  0  0  0  0  0
    7.4319   -1.8780   -3.5068 N   0  0  0  0  0  0  0  0  0  0  0  0
    7.7574   -1.5316   -2.2360 C   0  0  0  0  0  0  0  0  0  0  0  0
    6.6275   -1.1792   -1.2928 C   0  0  0  0  0  0  0  0  0  0  0  0
    6.9076   -1.5443    0.0597 N   0  0  0  0  0  0  0  0  0  0  0  0
    6.5464   -2.7116    0.6104 C   0  0  0  0  0  0  0  0  0  0  0  0
    6.8919   -2.8211    2.0639 C   0  0  0  0  0  0  0  0  0  0  0  0
    7.7355   -4.0604    2.4643 C   0  0  0  0  0  0  0  0  0  0  0  0
    7.9667   -4.0478    3.9785 C   0  0  0  0  0  0  0  0  0  0  0  0
    9.1000   -4.0159    1.7514 C   0  0  0  0  0  0  0  0  0  0  0  0
    5.6500   -2.8111    2.8163 N   0  0  0  0  0  0  0  0  0  0  0  0
    5.3555   -1.6778    3.4990 C   0  0  0  0  0  0  0  0  0  0  0  0
    4.2087   -1.6854    4.4741 C   0  0  0  0  0  0  0  0  0  0  0  0
    4.6744   -2.4211    5.7049 C   0  0  0  0  0  0  0  0  0  0  0  0
    3.6190   -2.4203    6.7670 C   0  0  0  0  0  0  0  0  0  0  0  0
    3.3764   -1.0261    7.0572 N   0  0  0  0  0  0  0  0  0  0  0  0
    3.8767   -0.5464    8.2439 C   0  0  0  0  0  0  0  0  0  0  0  0
    4.2897    0.7881    8.3445 C   0  0  0  0  0  0  0  0  0  0  0  0
    4.0944    1.9411    8.2519 C   0  0  0  0  0  0  0  0  0  0  0  0
    5.0150    3.1341    8.4208 C   0  0  0  0  0  0  0  0  0  0  0  0
    6.3662    2.7422    8.0054 N   0  0  0  0  0  0  0  0  0  0  0  0
    6.9637    3.3142    6.8459 C   0  0  0  0  0  0  0  0  0  0  0  0
    7.2541    2.1555    8.9854 C   0  0  0  0  0  0  0  0  0  0  0  0
    4.4983    4.2913    7.5675 C   0  0  0  0  0  0  0  0  0  0  0  0
    5.0443    3.5774    9.8821 C   0  0  0  0  0  0  0  0  0  0  0  0
    4.0392   -1.2558    9.2075 O   0  0  0  0  0  0  0  0  0  0  0  0
    2.8096   -0.2685    5.9437 C   0  0  0  0  0  0  0  0  0  0  0  0
    3.8075   -0.2452    4.8459 C   0  0  0  0  0  0  0  0  0  0  0  0
    6.0299   -0.6652    3.3539 O   0  0  0  0  0  0  0  0  0  0  0  0
    4.8222   -4.0144    2.7859 C   0  0  0  0  0  0  0  0  0  0  0  0
    5.9542   -3.5786   -0.0109 O   0  0  0  0  0  0  0  0  0  0  0  0
    6.4413    0.3316   -1.3212 C   0  0  0  0  0  0  0  0  0  0  0  0
    5.1816    0.7979   -0.6979 C   0  0  0  0  0  0  0  0  0  0  0  0
    4.1466    0.8672   -1.7836 C   0  0  0  0  0  0  0  0  0  0  0  0
    3.0245    1.6071   -1.2624 N   0  0  0  0  0  0  0  0  0  0  0  0
    2.4583    1.0254   -0.0555 C   0  0  0  0  0  0  0  0  0  0  0  0
    3.5420    0.6886    0.9892 C   0  0  0  0  0  0  0  0  0  0  0  0
    4.6534    0.0031    0.3343 O   0  0  0  0  0  0  0  0  0  0  0  0
    8.9071   -1.4311   -1.8758 O   0  0  0  0  0  0  0  0  0  0  0  0
    8.4321   -2.2249   -4.5339 C   0  0  0  0  0  0  0  0  0  0  0  0
    8.3366   -1.1247   -5.6159 C   0  0  0  0  0  0  0  0  0  0  0  0
    6.9187   -0.9897   -6.1211 C   0  0  0  0  0  0  0  0  0  0  0  0
    3.8671   -1.7990   -5.0199 O   0  0  0  0  0  0  0  0  0  0  0  0
    1.9650    3.2616   -4.3960 C   0  0  0  0  0  0  0  0  0  0  0  0
    0.9224    4.0373   -3.9068 C   0  0  0  0  0  0  0  0  0  0  0  0
    0.5954    3.9986   -2.5267 C   0  0  0  0  0  0  0  0  0  0  0  0
    1.3039    3.1825   -1.6864 C   0  0  0  0  0  0  0  0  0  0  0  0
    2.3281    2.4068   -2.1617 C   0  0  0  0  0  0  0  0  0  0  0  0
    2.6897    2.4330   -3.5363 C   0  0  0  0  0  0  0  0  0  0  0  0
    3.0758   -2.2419    3.9195 F   0  0  0  0  0  0  0  0  0  0  0  0
  1  2  1  0  0  0  0
  2  3  1  0  0  0  0
  2  5  1  0  0  0  0
  3  4  1  0  0  0  0
  5  6  4  0  0  0  0
  5 10  4  0  0  0  0
  6  7  4  0  0  0  0
  7  8  4  0  0  0  0
  8  9  4  0  0  0  0
  9 10  4  0  0  0  0
 10 11  1  0  0  0  0
 11 12  4  0  0  0  0
 11 15  4  0  0  0  0
 12 13  1  0  0  0  0
 12 68  4  0  0  0  0
 13 14  1  0  0  0  0
 15 16  1  0  0  0  0
 15 67  4  0  0  0  0
 16 17  1  0  0  0  0
 17 18  1  0  0  0  0
 17 19  1  0  0  0  0
 17 20  1  0  0  0  0
 20 21  1  0  0  0  0
 21 22  1  0  0  0  0
 22 23  1  0  0  0  0
 22 66  2  0  0  0  0
 23 24  1  0  0  0  0
 23 65  1  0  0  0  0
 24 25  1  0  0  0  0
 25 26  1  0  0  0  0
 25 63  1  0  0  0  0
 26 27  1  0  0  0  0
 26 62  2  0  0  0  0
 27 28  1  0  0  0  0
 27 55  1  0  0  0  0
 28 29  1  0  0  0  0
 29 30  1  0  0  0  0
 29 54  2  0  0  0  0
 30 31  1  0  0  0  0
 30 34  1  0  0  0  0
 31 32  1  0  0  0  0
 31 33  1  0  0  0  0
 34 35  1  0  0  0  0
 34 53  1  0  0  0  0
 35 36  1  0  0  0  0
 35 52  2  0  0  0  0
 36 37  1  0  0  0  0
 36 51  1  0  0  0  0
 36 73  1  0  0  0  0
 37 38  1  0  0  0  0
 38 39  1  0  0  0  0
 39 40  1  0  0  0  0
 39 50  1  0  0  0  0
 40 41  1  0  0  0  0
 40 49  2  0  0  0  0
 41 42  1  0  0  0  0
 42 43  1  0  0  0  0
 43 44  1  0  0  0  0
 43 47  1  0  0  0  0
 43 48  1  0  0  0  0
 44 45  1  0  0  0  0
 44 46  1  0  0  0  0
 50 51  1  0  0  0  0
 55 56  1  0  0  0  0
 56 57  1  0  0  0  0
 56 61  1  0  0  0  0
 57 58  1  0  0  0  0
 58 59  1  0  0  0  0
 58 71  1  0  0  0  0
 59 60  1  0  0  0  0
 60 61  1  0  0  0  0
 63 64  1  0  0  0  0
 64 65  1  0  0  0  0
 67 68  4  0  0  0  0
 67 72  4  0  0  0  0
 68 69  4  0  0  0  0
 69 70  4  0  0  0  0
 70 71  4  0  0  0  0
 71 72  4  0  0  0  0
M  END
$$$$
