mol_ETKDG4_22
  PyMOL3.1          3D                             0

 73 79  0  0  0  0  0  0  0  0999 V2000
    3.3833    7.5540   -7.5754 C   0  0  0  0  0  0  0  0  0  0  0  0
    3.1954    6.0435   -7.5484 C   0  0  0  0  0  0  0  0  0  0  0  0
    4.2452    5.3590   -8.1720 O   0  0  0  0  0  0  0  0  0  0  0  0
    5.5335    5.4122   -7.6025 C   0  0  0  0  0  0  0  0  0  0  0  0
    1.9858    5.6303   -8.2746 C   0  0  0  0  0  0  0  0  0  0  0  0
    1.8260    6.1039   -9.5020 N   0  0  0  0  0  0  0  0  0  0  0  0
    0.7462    5.8108  -10.2255 C   0  0  0  0  0  0  0  0  0  0  0  0
   -0.2575    4.9846   -9.6961 C   0  0  0  0  0  0  0  0  0  0  0  0
   -0.0929    4.4759   -8.4220 C   0  0  0  0  0  0  0  0  0  0  0  0
    1.0387    4.7948   -7.7132 C   0  0  0  0  0  0  0  0  0  0  0  0
    1.2438    4.2368   -6.3882 C   0  0  0  0  0  0  0  0  0  0  0  0
    0.6858    4.7377   -5.2508 N   0  0  0  0  0  0  0  0  0  0  0  0
   -0.1800    5.9157   -5.1213 C   0  0  0  0  0  0  0  0  0  0  0  0
   -1.6438    5.4878   -5.0297 C   0  0  0  0  0  0  0  0  0  0  0  0
    2.0609    3.1609   -6.0647 C   0  0  0  0  0  0  0  0  0  0  0  0
    2.9402    2.3888   -6.9937 C   0  0  0  0  0  0  0  0  0  0  0  0
    2.3044    1.1148   -7.6518 C   0  0  0  0  0  0  0  0  0  0  0  0
    2.8371    0.9292   -9.1001 C   0  0  0  0  0  0  0  0  0  0  0  0
    0.7848    1.1596   -7.6847 C   0  0  0  0  0  0  0  0  0  0  0  0
    2.6287   -0.0763   -6.9069 C   0  0  0  0  0  0  0  0  0  0  0  0
    3.9726   -0.1001   -6.3075 O   0  0  0  0  0  0  0  0  0  0  0  0
    4.4234   -1.1090   -5.4872 C   0  0  0  0  0  0  0  0  0  0  0  0
    5.8373   -0.9358   -5.0437 C   0  0  0  0  0  0  0  0  0  0  0  0
    6.0979   -1.9186   -4.0155 N   0  0  0  0  0  0  0  0  0  0  0  0
    7.3848   -1.9321   -3.5718 N   0  0  0  0  0  0  0  0  0  0  0  0
    7.7042   -1.5884   -2.2949 C   0  0  0  0  0  0  0  0  0  0  0  0
    6.5630   -1.2263   -1.3611 C   0  0  0  0  0  0  0  0  0  0  0  0
    6.8148   -1.6011    0.0155 N   0  0  0  0  0  0  0  0  0  0  0  0
    6.4432   -2.7520    0.5690 C   0  0  0  0  0  0  0  0  0  0  0  0
    6.7446   -2.8605    2.0356 C   0  0  0  0  0  0  0  0  0  0  0  0
    7.5878   -4.1073    2.4313 C   0  0  0  0  0  0  0  0  0  0  0  0
    7.7378   -4.1594    3.9494 C   0  0  0  0  0  0  0  0  0  0  0  0
    8.9900   -4.0279    1.7933 C   0  0  0  0  0  0  0  0  0  0  0  0
    5.4673   -2.8202    2.7548 N   0  0  0  0  0  0  0  0  0  0  0  0
    5.1294   -1.6525    3.4310 C   0  0  0  0  0  0  0  0  0  0  0  0
    3.8801   -1.4790    4.3061 C   0  0  0  0  0  0  0  0  0  0  0  0
    4.2002   -0.6706    5.5799 C   0  0  0  0  0  0  0  0  0  0  0  0
    4.7473   -1.4347    6.6597 C   0  0  0  0  0  0  0  0  0  0  0  0
    3.9345   -2.6264    6.9838 N   0  0  0  0  0  0  0  0  0  0  0  0
    3.5209   -2.9220    8.2464 C   0  0  0  0  0  0  0  0  0  0  0  0
    3.6832   -1.9396    9.2862 C   0  0  0  0  0  0  0  0  0  0  0  0
    3.2931   -0.9750    9.8977 C   0  0  0  0  0  0  0  0  0  0  0  0
    3.8551   -0.3079   11.1503 C   0  0  0  0  0  0  0  0  0  0  0  0
    4.5265    0.9892   10.8569 N   0  0  0  0  0  0  0  0  0  0  0  0
    5.5324    0.8954    9.7882 C   0  0  0  0  0  0  0  0  0  0  0  0
    5.0798    1.6545   12.0403 C   0  0  0  0  0  0  0  0  0  0  0  0
    4.8905   -1.2303   11.8398 C   0  0  0  0  0  0  0  0  0  0  0  0
    2.6893   -0.0623   12.1067 C   0  0  0  0  0  0  0  0  0  0  0  0
    3.0166   -4.0053    8.5056 O   0  0  0  0  0  0  0  0  0  0  0  0
    3.5720   -3.4574    5.8492 C   0  0  0  0  0  0  0  0  0  0  0  0
    3.0316   -2.6231    4.7348 C   0  0  0  0  0  0  0  0  0  0  0  0
    5.8892   -0.6898    3.3302 O   0  0  0  0  0  0  0  0  0  0  0  0
    4.6247   -4.0041    2.6668 C   0  0  0  0  0  0  0  0  0  0  0  0
    5.8696   -3.6356   -0.0633 O   0  0  0  0  0  0  0  0  0  0  0  0
    6.4048    0.2933   -1.4268 C   0  0  0  0  0  0  0  0  0  0  0  0
    5.1300    0.8005   -0.8663 C   0  0  0  0  0  0  0  0  0  0  0  0
    4.0021    0.5743   -1.8621 C   0  0  0  0  0  0  0  0  0  0  0  0
    2.8832    1.3947   -1.4434 N   0  0  0  0  0  0  0  0  0  0  0  0
    2.4622    1.1075   -0.0667 C   0  0  0  0  0  0  0  0  0  0  0  0
    3.6560    1.0474    0.9184 C   0  0  0  0  0  0  0  0  0  0  0  0
    4.7364    0.2384    0.3489 O   0  0  0  0  0  0  0  0  0  0  0  0
    8.8440   -1.4848   -1.9196 O   0  0  0  0  0  0  0  0  0  0  0  0
    8.4053   -2.2291   -4.6053 C   0  0  0  0  0  0  0  0  0  0  0  0
    8.2405   -1.1486   -5.7016 C   0  0  0  0  0  0  0  0  0  0  0  0
    6.8191   -1.1146   -6.2131 C   0  0  0  0  0  0  0  0  0  0  0  0
    3.8127   -2.1274   -5.0819 O   0  0  0  0  0  0  0  0  0  0  0  0
    1.9569    3.0156   -4.6543 C   0  0  0  0  0  0  0  0  0  0  0  0
    1.0851    3.9936   -4.1847 C   0  0  0  0  0  0  0  0  0  0  0  0
    0.8165    4.0893   -2.7991 C   0  0  0  0  0  0  0  0  0  0  0  0
    1.4222    3.2228   -1.9134 C   0  0  0  0  0  0  0  0  0  0  0  0
    2.2822    2.2435   -2.3642 C   0  0  0  0  0  0  0  0  0  0  0  0
    2.5773    2.1347   -3.7596 C   0  0  0  0  0  0  0  0  0  0  0  0
    3.0094   -0.7197    3.5465 F   0  0  0  0  0  0  0  0  0  0  0  0
  1  2  1  0  0  0  0
  2  3  1  0  0  0  0
  2  5  1  0  0  0  0
  3  4  1  0  0  0  0
  5  6  4  0  0  0  0
  5 10  4  0  0  0  0
  6  7  4  0  0  0  0
  7  8  4  0  0  0  0
  8  9  4  0  0  0  0
  9 10  4  0  0  0  0
 10 11  1  0  0  0  0
 11 12  4  0  0  0  0
 11 15  4  0  0  0  0
 12 13  1  0  0  0  0
 12 68  4  0  0  0  0
 13 14  1  0  0  0  0
 15 16  1  0  0  0  0
 15 67  4  0  0  0  0
 16 17  1  0  0  0  0
 17 18  1  0  0  0  0
 17 19  1  0  0  0  0
 17 20  1  0  0  0  0
 20 21  1  0  0  0  0
 21 22  1  0  0  0  0
 22 23  1  0  0  0  0
 22 66  2  0  0  0  0
 23 24  1  0  0  0  0
 23 65  1  0  0  0  0
 24 25  1  0  0  0  0
 25 26  1  0  0  0  0
 25 63  1  0  0  0  0
 26 27  1  0  0  0  0
 26 62  2  0  0  0  0
 27 28  1  0  0  0  0
 27 55  1  0  0  0  0
 28 29  1  0  0  0  0
 29 30  1  0  0  0  0
 29 54  2  0  0  0  0
 30 31  1  0  0  0  0
 30 34  1  0  0  0  0
 31 32  1  0  0  0  0
 31 33  1  0  0  0  0
 34 35  1  0  0  0  0
 34 53  1  0  0  0  0
 35 36  1  0  0  0  0
 35 52  2  0  0  0  0
 36 37  1  0  0  0  0
 36 51  1  0  0  0  0
 36 73  1  0  0  0  0
 37 38  1  0  0  0  0
 38 39  1  0  0  0  0
 39 40  1  0  0  0  0
 39 50  1  0  0  0  0
 40 41  1  0  0  0  0
 40 49  2  0  0  0  0
 41 42  1  0  0  0  0
 42 43  1  0  0  0  0
 43 44  1  0  0  0  0
 43 47  1  0  0  0  0
 43 48  1  0  0  0  0
 44 45  1  0  0  0  0
 44 46  1  0  0  0  0
 50 51  1  0  0  0  0
 55 56  1  0  0  0  0
 56 57  1  0  0  0  0
 56 61  1  0  0  0  0
 57 58  1  0  0  0  0
 58 59  1  0  0  0  0
 58 71  1  0  0  0  0
 59 60  1  0  0  0  0
 60 61  1  0  0  0  0
 63 64  1  0  0  0  0
 64 65  1  0  0  0  0
 67 68  4  0  0  0  0
 67 72  4  0  0  0  0
 68 69  4  0  0  0  0
 69 70  4  0  0  0  0
 70 71  4  0  0  0  0
 71 72  4  0  0  0  0
M  END
$$$$
