mol_ETKDG4_23
  PyMOL3.1          3D                             0

 73 79  0  0  0  0  0  0  0  0999 V2000
    2.9783    6.4934   -9.7954 C   0  0  0  0  0  0  0  0  0  0  0  0
    2.5118    5.5239   -8.7238 C   0  0  0  0  0  0  0  0  0  0  0  0
    3.5805    4.7269   -8.4537 O   0  0  0  0  0  0  0  0  0  0  0  0
    4.6885    5.3654   -7.8235 C   0  0  0  0  0  0  0  0  0  0  0  0
    1.3306    4.7531   -9.1839 C   0  0  0  0  0  0  0  0  0  0  0  0
    1.0230    4.9389  -10.4495 N   0  0  0  0  0  0  0  0  0  0  0  0
   -0.0558    4.4098  -11.0026 C   0  0  0  0  0  0  0  0  0  0  0  0
   -0.9201    3.6231  -10.2472 C   0  0  0  0  0  0  0  0  0  0  0  0
   -0.6135    3.3901   -8.9345 C   0  0  0  0  0  0  0  0  0  0  0  0
    0.5222    3.9289   -8.3900 C   0  0  0  0  0  0  0  0  0  0  0  0
    0.8365    3.5973   -7.0049 C   0  0  0  0  0  0  0  0  0  0  0  0
    0.2086    4.1343   -5.9263 N   0  0  0  0  0  0  0  0  0  0  0  0
   -0.8066    5.1893   -5.9234 C   0  0  0  0  0  0  0  0  0  0  0  0
   -2.1995    4.5930   -5.7502 C   0  0  0  0  0  0  0  0  0  0  0  0
    1.7944    2.6889   -6.5562 C   0  0  0  0  0  0  0  0  0  0  0  0
    2.7696    1.9376   -7.3809 C   0  0  0  0  0  0  0  0  0  0  0  0
    2.2671    0.5424   -7.8668 C   0  0  0  0  0  0  0  0  0  0  0  0
    0.7463    0.4522   -8.0023 C   0  0  0  0  0  0  0  0  0  0  0  0
    2.9109    0.1888   -9.2282 C   0  0  0  0  0  0  0  0  0  0  0  0
    2.6075   -0.4581   -6.9154 C   0  0  0  0  0  0  0  0  0  0  0  0
    3.9754   -0.3806   -6.3430 O   0  0  0  0  0  0  0  0  0  0  0  0
    4.4804   -1.3219   -5.4719 C   0  0  0  0  0  0  0  0  0  0  0  0
    5.8773   -1.0681   -5.0409 C   0  0  0  0  0  0  0  0  0  0  0  0
    6.1546   -1.9764   -3.9526 N   0  0  0  0  0  0  0  0  0  0  0  0
    7.4308   -1.9279   -3.4918 N   0  0  0  0  0  0  0  0  0  0  0  0
    7.7169   -1.5262   -2.2235 C   0  0  0  0  0  0  0  0  0  0  0  0
    6.5508   -1.1792   -1.3133 C   0  0  0  0  0  0  0  0  0  0  0  0
    6.8202   -1.5133    0.0732 N   0  0  0  0  0  0  0  0  0  0  0  0
    6.5192   -2.6918    0.6536 C   0  0  0  0  0  0  0  0  0  0  0  0
    6.8775   -2.8022    2.1103 C   0  0  0  0  0  0  0  0  0  0  0  0
    7.7528   -4.0305    2.4877 C   0  0  0  0  0  0  0  0  0  0  0  0
    8.0104   -4.0286    4.0005 C   0  0  0  0  0  0  0  0  0  0  0  0
    9.1013   -3.9705    1.7544 C   0  0  0  0  0  0  0  0  0  0  0  0
    5.6643   -2.8386    2.9002 N   0  0  0  0  0  0  0  0  0  0  0  0
    5.3705   -1.7478    3.6504 C   0  0  0  0  0  0  0  0  0  0  0  0
    4.2281   -1.8072    4.6633 C   0  0  0  0  0  0  0  0  0  0  0  0
    4.7302   -2.5859    5.8540 C   0  0  0  0  0  0  0  0  0  0  0  0
    3.6923   -2.6537    6.9348 C   0  0  0  0  0  0  0  0  0  0  0  0
    3.3909   -1.2714    7.2771 N   0  0  0  0  0  0  0  0  0  0  0  0
    3.8357   -0.8049    8.4862 C   0  0  0  0  0  0  0  0  0  0  0  0
    4.0648    0.5936    8.6376 C   0  0  0  0  0  0  0  0  0  0  0  0
    3.7528    1.6752    8.6727 C   0  0  0  0  0  0  0  0  0  0  0  0
    4.4334    3.0164    8.7369 C   0  0  0  0  0  0  0  0  0  0  0  0
    5.8685    2.8377    8.4174 N   0  0  0  0  0  0  0  0  0  0  0  0
    6.1410    2.5258    7.0238 C   0  0  0  0  0  0  0  0  0  0  0  0
    6.7914    3.8201    8.9788 C   0  0  0  0  0  0  0  0  0  0  0  0
    4.2638    3.5462   10.1552 C   0  0  0  0  0  0  0  0  0  0  0  0
    3.7768    3.9908    7.7524 C   0  0  0  0  0  0  0  0  0  0  0  0
    4.0865   -1.5456    9.4084 O   0  0  0  0  0  0  0  0  0  0  0  0
    2.8116   -0.4795    6.2013 C   0  0  0  0  0  0  0  0  0  0  0  0
    3.8038   -0.4020    5.0918 C   0  0  0  0  0  0  0  0  0  0  0  0
    6.0297   -0.7234    3.5396 O   0  0  0  0  0  0  0  0  0  0  0  0
    4.8406   -4.0548    2.8476 C   0  0  0  0  0  0  0  0  0  0  0  0
    5.9625   -3.6009    0.0371 O   0  0  0  0  0  0  0  0  0  0  0  0
    6.3115    0.3309   -1.4271 C   0  0  0  0  0  0  0  0  0  0  0  0
    4.9749    0.7956   -0.9641 C   0  0  0  0  0  0  0  0  0  0  0  0
    4.0189    0.7882   -2.1525 C   0  0  0  0  0  0  0  0  0  0  0  0
    2.7997    1.5064   -1.7925 N   0  0  0  0  0  0  0  0  0  0  0  0
    2.1805    0.9731   -0.5769 C   0  0  0  0  0  0  0  0  0  0  0  0
    3.1870    0.7298    0.5634 C   0  0  0  0  0  0  0  0  0  0  0  0
    4.3810    0.0465    0.0575 O   0  0  0  0  0  0  0  0  0  0  0  0
    8.8500   -1.3680   -1.8384 O   0  0  0  0  0  0  0  0  0  0  0  0
    8.4734   -2.2411   -4.4992 C   0  0  0  0  0  0  0  0  0  0  0  0
    8.2869   -1.2341   -5.6557 C   0  0  0  0  0  0  0  0  0  0  0  0
    6.8739   -1.2885   -6.1836 C   0  0  0  0  0  0  0  0  0  0  0  0
    3.9168   -2.3493   -5.0103 O   0  0  0  0  0  0  0  0  0  0  0  0
    1.7040    2.6843   -5.1463 C   0  0  0  0  0  0  0  0  0  0  0  0
    0.7004    3.5742   -4.7863 C   0  0  0  0  0  0  0  0  0  0  0  0
    0.4030    3.7612   -3.4178 C   0  0  0  0  0  0  0  0  0  0  0  0
    1.1059    3.0663   -2.4476 C   0  0  0  0  0  0  0  0  0  0  0  0
    2.1028    2.1745   -2.7989 C   0  0  0  0  0  0  0  0  0  0  0  0
    2.4341    1.9874   -4.1698 C   0  0  0  0  0  0  0  0  0  0  0  0
    3.1003   -2.3740    4.1141 F   0  0  0  0  0  0  0  0  0  0  0  0
  1  2  1  0  0  0  0
  2  3  1  0  0  0  0
  2  5  1  0  0  0  0
  3  4  1  0  0  0  0
  5  6  4  0  0  0  0
  5 10  4  0  0  0  0
  6  7  4  0  0  0  0
  7  8  4  0  0  0  0
  8  9  4  0  0  0  0
  9 10  4  0  0  0  0
 10 11  1  0  0  0  0
 11 12  4  0  0  0  0
 11 15  4  0  0  0  0
 12 13  1  0  0  0  0
 12 68  4  0  0  0  0
 13 14  1  0  0  0  0
 15 16  1  0  0  0  0
 15 67  4  0  0  0  0
 16 17  1  0  0  0  0
 17 18  1  0  0  0  0
 17 19  1  0  0  0  0
 17 20  1  0  0  0  0
 20 21  1  0  0  0  0
 21 22  1  0  0  0  0
 22 23  1  0  0  0  0
 22 66  2  0  0  0  0
 23 24  1  0  0  0  0
 23 65  1  0  0  0  0
 24 25  1  0  0  0  0
 25 26  1  0  0  0  0
 25 63  1  0  0  0  0
 26 27  1  0  0  0  0
 26 62  2  0  0  0  0
 27 28  1  0  0  0  0
 27 55  1  0  0  0  0
 28 29  1  0  0  0  0
 29 30  1  0  0  0  0
 29 54  2  0  0  0  0
 30 31  1  0  0  0  0
 30 34  1  0  0  0  0
 31 32  1  0  0  0  0
 31 33  1  0  0  0  0
 34 35  1  0  0  0  0
 34 53  1  0  0  0  0
 35 36  1  0  0  0  0
 35 52  2  0  0  0  0
 36 37  1  0  0  0  0
 36 51  1  0  0  0  0
 36 73  1  0  0  0  0
 37 38  1  0  0  0  0
 38 39  1  0  0  0  0
 39 40  1  0  0  0  0
 39 50  1  0  0  0  0
 40 41  1  0  0  0  0
 40 49  2  0  0  0  0
 41 42  1  0  0  0  0
 42 43  1  0  0  0  0
 43 44  1  0  0  0  0
 43 47  1  0  0  0  0
 43 48  1  0  0  0  0
 44 45  1  0  0  0  0
 44 46  1  0  0  0  0
 50 51  1  0  0  0  0
 55 56  1  0  0  0  0
 56 57  1  0  0  0  0
 56 61  1  0  0  0  0
 57 58  1  0  0  0  0
 58 59  1  0  0  0  0
 58 71  1  0  0  0  0
 59 60  1  0  0  0  0
 60 61  1  0  0  0  0
 63 64  1  0  0  0  0
 64 65  1  0  0  0  0
 67 68  4  0  0  0  0
 67 72  4  0  0  0  0
 68 69  4  0  0  0  0
 69 70  4  0  0  0  0
 70 71  4  0  0  0  0
 71 72  4  0  0  0  0
M  END
$$$$
