mol_ETKDG4_25
  PyMOL3.1          3D                             0

 73 79  0  0  0  0  0  0  0  0999 V2000
    4.2928    7.3598   -7.7810 C   0  0  0  0  0  0  0  0  0  0  0  0
    3.9144    5.9267   -7.4522 C   0  0  0  0  0  0  0  0  0  0  0  0
    4.9604    5.0528   -7.7251 O   0  0  0  0  0  0  0  0  0  0  0  0
    6.0389    4.9936   -6.7849 C   0  0  0  0  0  0  0  0  0  0  0  0
    2.7540    5.4767   -8.2550 C   0  0  0  0  0  0  0  0  0  0  0  0
    2.7387    5.7990   -9.5352 N   0  0  0  0  0  0  0  0  0  0  0  0
    1.6987    5.5048  -10.3101 C   0  0  0  0  0  0  0  0  0  0  0  0
    0.5839    4.8411   -9.7835 C   0  0  0  0  0  0  0  0  0  0  0  0
    0.5985    4.4869   -8.4494 C   0  0  0  0  0  0  0  0  0  0  0  0
    1.6891    4.7967   -7.6942 C   0  0  0  0  0  0  0  0  0  0  0  0
    1.7826    4.3379   -6.3253 C   0  0  0  0  0  0  0  0  0  0  0  0
    1.2948    4.9703   -5.2206 N   0  0  0  0  0  0  0  0  0  0  0  0
    0.5966    6.2508   -5.1762 C   0  0  0  0  0  0  0  0  0  0  0  0
   -0.8783    6.0451   -4.8611 C   0  0  0  0  0  0  0  0  0  0  0  0
    2.4587    3.2058   -5.9433 C   0  0  0  0  0  0  0  0  0  0  0  0
    3.2017    2.3022   -6.8469 C   0  0  0  0  0  0  0  0  0  0  0  0
    2.4077    1.0863   -7.3982 C   0  0  0  0  0  0  0  0  0  0  0  0
    0.9012    1.2816   -7.3792 C   0  0  0  0  0  0  0  0  0  0  0  0
    2.8743    0.7255   -8.8354 C   0  0  0  0  0  0  0  0  0  0  0  0
    2.6557   -0.0256   -6.5719 C   0  0  0  0  0  0  0  0  0  0  0  0
    4.0384   -0.1153   -6.0808 O   0  0  0  0  0  0  0  0  0  0  0  0
    4.4853   -1.1187   -5.2771 C   0  0  0  0  0  0  0  0  0  0  0  0
    5.9088   -0.9815   -4.9084 C   0  0  0  0  0  0  0  0  0  0  0  0
    6.1655   -1.9545   -3.8939 N   0  0  0  0  0  0  0  0  0  0  0  0
    7.4542   -1.9816   -3.4864 N   0  0  0  0  0  0  0  0  0  0  0  0
    7.8016   -1.6194   -2.2366 C   0  0  0  0  0  0  0  0  0  0  0  0
    6.7002   -1.2251   -1.2869 C   0  0  0  0  0  0  0  0  0  0  0  0
    6.9768   -1.6248    0.0659 N   0  0  0  0  0  0  0  0  0  0  0  0
    6.6085   -2.7854    0.5835 C   0  0  0  0  0  0  0  0  0  0  0  0
    6.9630   -2.9488    2.0233 C   0  0  0  0  0  0  0  0  0  0  0  0
    7.8113   -4.1950    2.3622 C   0  0  0  0  0  0  0  0  0  0  0  0
    8.0255   -4.2693    3.8738 C   0  0  0  0  0  0  0  0  0  0  0  0
    9.1782   -4.0953    1.6723 C   0  0  0  0  0  0  0  0  0  0  0  0
    5.7456   -2.9667    2.7728 N   0  0  0  0  0  0  0  0  0  0  0  0
    5.4846   -1.8786    3.5149 C   0  0  0  0  0  0  0  0  0  0  0  0
    4.3655   -1.9299    4.5195 C   0  0  0  0  0  0  0  0  0  0  0  0
    4.7919   -2.9233    5.5581 C   0  0  0  0  0  0  0  0  0  0  0  0
    3.8052   -3.0190    6.6520 C   0  0  0  0  0  0  0  0  0  0  0  0
    3.8387   -1.7224    7.2145 N   0  0  0  0  0  0  0  0  0  0  0  0
    4.5344   -1.6153    8.3867 C   0  0  0  0  0  0  0  0  0  0  0  0
    5.2825   -0.4468    8.6263 C   0  0  0  0  0  0  0  0  0  0  0  0
    5.4698    0.5581    9.0440 C   0  0  0  0  0  0  0  0  0  0  0  0
    6.5612    1.5855    9.0574 C   0  0  0  0  0  0  0  0  0  0  0  0
    7.8305    0.9745    9.5471 N   0  0  0  0  0  0  0  0  0  0  0  0
    8.2827   -0.1782    8.7519 C   0  0  0  0  0  0  0  0  0  0  0  0
    8.9106    1.9147    9.8274 C   0  0  0  0  0  0  0  0  0  0  0  0
    6.1199    2.6983   10.0052 C   0  0  0  0  0  0  0  0  0  0  0  0
    6.7590    2.1742    7.6485 C   0  0  0  0  0  0  0  0  0  0  0  0
    4.5930   -2.5139    9.2048 O   0  0  0  0  0  0  0  0  0  0  0  0
    3.3138   -0.6734    6.3400 C   0  0  0  0  0  0  0  0  0  0  0  0
    4.1714   -0.5620    5.1504 C   0  0  0  0  0  0  0  0  0  0  0  0
    6.1677   -0.8677    3.4157 O   0  0  0  0  0  0  0  0  0  0  0  0
    4.8792   -4.1526    2.6764 C   0  0  0  0  0  0  0  0  0  0  0  0
    6.0040   -3.6406   -0.0580 O   0  0  0  0  0  0  0  0  0  0  0  0
    6.6032    0.2911   -1.3395 C   0  0  0  0  0  0  0  0  0  0  0  0
    5.3795    0.8446   -0.7314 C   0  0  0  0  0  0  0  0  0  0  0  0
    4.2470    0.7212   -1.7163 C   0  0  0  0  0  0  0  0  0  0  0  0
    3.2134    1.6261   -1.2837 N   0  0  0  0  0  0  0  0  0  0  0  0
    2.7536    1.3151    0.0660 C   0  0  0  0  0  0  0  0  0  0  0  0
    3.9219    1.1326    1.0604 C   0  0  0  0  0  0  0  0  0  0  0  0
    4.9601    0.2770    0.4726 O   0  0  0  0  0  0  0  0  0  0  0  0
    8.9519   -1.5222   -1.8890 O   0  0  0  0  0  0  0  0  0  0  0  0
    8.4340   -2.3284   -4.5352 C   0  0  0  0  0  0  0  0  0  0  0  0
    8.2699   -1.2700   -5.6385 C   0  0  0  0  0  0  0  0  0  0  0  0
    6.8383   -1.2019   -6.1061 C   0  0  0  0  0  0  0  0  0  0  0  0
    3.8721   -2.1170   -4.8179 O   0  0  0  0  0  0  0  0  0  0  0  0
    2.3635    3.1569   -4.5306 C   0  0  0  0  0  0  0  0  0  0  0  0
    1.6186    4.2511   -4.1149 C   0  0  0  0  0  0  0  0  0  0  0  0
    1.3879    4.4481   -2.7362 C   0  0  0  0  0  0  0  0  0  0  0  0
    1.9190    3.5673   -1.8125 C   0  0  0  0  0  0  0  0  0  0  0  0
    2.6610    2.4808   -2.2231 C   0  0  0  0  0  0  0  0  0  0  0  0
    2.9081    2.2676   -3.6051 C   0  0  0  0  0  0  0  0  0  0  0  0
    3.1719   -2.2674    3.9104 F   0  0  0  0  0  0  0  0  0  0  0  0
  1  2  1  0  0  0  0
  2  3  1  0  0  0  0
  2  5  1  0  0  0  0
  3  4  1  0  0  0  0
  5  6  4  0  0  0  0
  5 10  4  0  0  0  0
  6  7  4  0  0  0  0
  7  8  4  0  0  0  0
  8  9  4  0  0  0  0
  9 10  4  0  0  0  0
 10 11  1  0  0  0  0
 11 12  4  0  0  0  0
 11 15  4  0  0  0  0
 12 13  1  0  0  0  0
 12 68  4  0  0  0  0
 13 14  1  0  0  0  0
 15 16  1  0  0  0  0
 15 67  4  0  0  0  0
 16 17  1  0  0  0  0
 17 18  1  0  0  0  0
 17 19  1  0  0  0  0
 17 20  1  0  0  0  0
 20 21  1  0  0  0  0
 21 22  1  0  0  0  0
 22 23  1  0  0  0  0
 22 66  2  0  0  0  0
 23 24  1  0  0  0  0
 23 65  1  0  0  0  0
 24 25  1  0  0  0  0
 25 26  1  0  0  0  0
 25 63  1  0  0  0  0
 26 27  1  0  0  0  0
 26 62  2  0  0  0  0
 27 28  1  0  0  0  0
 27 55  1  0  0  0  0
 28 29  1  0  0  0  0
 29 30  1  0  0  0  0
 29 54  2  0  0  0  0
 30 31  1  0  0  0  0
 30 34  1  0  0  0  0
 31 32  1  0  0  0  0
 31 33  1  0  0  0  0
 34 35  1  0  0  0  0
 34 53  1  0  0  0  0
 35 36  1  0  0  0  0
 35 52  2  0  0  0  0
 36 37  1  0  0  0  0
 36 51  1  0  0  0  0
 36 73  1  0  0  0  0
 37 38  1  0  0  0  0
 38 39  1  0  0  0  0
 39 40  1  0  0  0  0
 39 50  1  0  0  0  0
 40 41  1  0  0  0  0
 40 49  2  0  0  0  0
 41 42  1  0  0  0  0
 42 43  1  0  0  0  0
 43 44  1  0  0  0  0
 43 47  1  0  0  0  0
 43 48  1  0  0  0  0
 44 45  1  0  0  0  0
 44 46  1  0  0  0  0
 50 51  1  0  0  0  0
 55 56  1  0  0  0  0
 56 57  1  0  0  0  0
 56 61  1  0  0  0  0
 57 58  1  0  0  0  0
 58 59  1  0  0  0  0
 58 71  1  0  0  0  0
 59 60  1  0  0  0  0
 60 61  1  0  0  0  0
 63 64  1  0  0  0  0
 64 65  1  0  0  0  0
 67 68  4  0  0  0  0
 67 72  4  0  0  0  0
 68 69  4  0  0  0  0
 69 70  4  0  0  0  0
 70 71  4  0  0  0  0
 71 72  4  0  0  0  0
M  END
$$$$
