mol_ETKDG5_27
  PyMOL3.1          3D                             0

 73 79  0  0  0  0  0  0  0  0999 V2000
    2.8553    4.2332   -9.8190 C   0  0  0  0  0  0  0  0  0  0  0  0
    2.0194    4.3549   -8.5462 C   0  0  0  0  0  0  0  0  0  0  0  0
    2.0800    5.6353   -8.0082 O   0  0  0  0  0  0  0  0  0  0  0  0
    3.3517    6.2292   -7.8261 C   0  0  0  0  0  0  0  0  0  0  0  0
    0.6130    3.9972   -8.8075 C   0  0  0  0  0  0  0  0  0  0  0  0
    0.1892    4.3319  -10.0029 N   0  0  0  0  0  0  0  0  0  0  0  0
   -1.0432    4.0909  -10.3906 C   0  0  0  0  0  0  0  0  0  0  0  0
   -1.9383    3.4438   -9.5445 C   0  0  0  0  0  0  0  0  0  0  0  0
   -1.5078    3.0660   -8.3069 C   0  0  0  0  0  0  0  0  0  0  0  0
   -0.2332    3.3600   -7.9006 C   0  0  0  0  0  0  0  0  0  0  0  0
    0.1626    2.9525   -6.5512 C   0  0  0  0  0  0  0  0  0  0  0  0
   -0.5225    3.2628   -5.4093 N   0  0  0  0  0  0  0  0  0  0  0  0
   -1.7438    4.0666   -5.2874 C   0  0  0  0  0  0  0  0  0  0  0  0
   -1.4659    5.3960   -4.5810 C   0  0  0  0  0  0  0  0  0  0  0  0
    1.2656    2.1800   -6.2026 C   0  0  0  0  0  0  0  0  0  0  0  0
    2.3161    1.6487   -7.1093 C   0  0  0  0  0  0  0  0  0  0  0  0
    1.9845    0.2486   -7.7432 C   0  0  0  0  0  0  0  0  0  0  0  0
    2.7106    0.0863   -9.1024 C   0  0  0  0  0  0  0  0  0  0  0  0
    0.4912    0.0289   -7.9407 C   0  0  0  0  0  0  0  0  0  0  0  0
    2.4082   -0.7698   -6.8591 C   0  0  0  0  0  0  0  0  0  0  0  0
    3.7894   -0.6200   -6.3108 O   0  0  0  0  0  0  0  0  0  0  0  0
    4.3495   -1.5138   -5.4386 C   0  0  0  0  0  0  0  0  0  0  0  0
    5.7485   -1.1824   -5.0406 C   0  0  0  0  0  0  0  0  0  0  0  0
    6.1228   -2.1187   -4.0124 N   0  0  0  0  0  0  0  0  0  0  0  0
    7.4114   -2.0077   -3.5917 N   0  0  0  0  0  0  0  0  0  0  0  0
    7.7020   -1.6189   -2.3200 C   0  0  0  0  0  0  0  0  0  0  0  0
    6.5430   -1.3418   -1.3842 C   0  0  0  0  0  0  0  0  0  0  0  0
    6.8495   -1.6575   -0.0108 N   0  0  0  0  0  0  0  0  0  0  0  0
    6.5385   -2.8249    0.5734 C   0  0  0  0  0  0  0  0  0  0  0  0
    6.8777   -2.8677    2.0428 C   0  0  0  0  0  0  0  0  0  0  0  0
    7.7425   -4.0934    2.4734 C   0  0  0  0  0  0  0  0  0  0  0  0
    7.9682   -4.0466    3.9816 C   0  0  0  0  0  0  0  0  0  0  0  0
    9.0842   -4.0743    1.7489 C   0  0  0  0  0  0  0  0  0  0  0  0
    5.6394   -2.8189    2.7968 N   0  0  0  0  0  0  0  0  0  0  0  0
    5.3505   -1.6288    3.4169 C   0  0  0  0  0  0  0  0  0  0  0  0
    4.2700   -1.4466    4.4412 C   0  0  0  0  0  0  0  0  0  0  0  0
    5.0119   -1.7064    5.7053 C   0  0  0  0  0  0  0  0  0  0  0  0
    4.5032   -2.9388    6.4156 C   0  0  0  0  0  0  0  0  0  0  0  0
    3.3164   -2.5174    6.9148 N   0  0  0  0  0  0  0  0  0  0  0  0
    3.5622   -2.0939    8.2096 C   0  0  0  0  0  0  0  0  0  0  0  0
    3.6406   -0.6993    8.4936 C   0  0  0  0  0  0  0  0  0  0  0  0
    3.1780    0.4209    8.4052 C   0  0  0  0  0  0  0  0  0  0  0  0
    3.8088    1.7826    8.6045 C   0  0  0  0  0  0  0  0  0  0  0  0
    5.0987    1.7654    7.9107 N   0  0  0  0  0  0  0  0  0  0  0  0
    5.3226    2.6970    6.8418 C   0  0  0  0  0  0  0  0  0  0  0  0
    6.2967    1.4482    8.6909 C   0  0  0  0  0  0  0  0  0  0  0  0
    4.0263    2.0627   10.1009 C   0  0  0  0  0  0  0  0  0  0  0  0
    2.8801    2.8599    8.0422 C   0  0  0  0  0  0  0  0  0  0  0  0
    3.8846   -2.8808    9.0798 O   0  0  0  0  0  0  0  0  0  0  0  0
    2.3171   -2.1602    5.8581 C   0  0  0  0  0  0  0  0  0  0  0  0
    2.9620   -2.1764    4.4353 C   0  0  0  0  0  0  0  0  0  0  0  0
    6.0652   -0.6595    3.2105 O   0  0  0  0  0  0  0  0  0  0  0  0
    4.8174   -4.0142    2.8089 C   0  0  0  0  0  0  0  0  0  0  0  0
    5.9956   -3.7484   -0.0193 O   0  0  0  0  0  0  0  0  0  0  0  0
    6.2081    0.1481   -1.4409 C   0  0  0  0  0  0  0  0  0  0  0  0
    4.8578    0.4668   -0.8978 C   0  0  0  0  0  0  0  0  0  0  0  0
    3.8504    0.3075   -2.0173 C   0  0  0  0  0  0  0  0  0  0  0  0
    2.5872    0.8466   -1.5650 N   0  0  0  0  0  0  0  0  0  0  0  0
    2.1128    0.2625   -0.3157 C   0  0  0  0  0  0  0  0  0  0  0  0
    3.2100    0.1939    0.7569 C   0  0  0  0  0  0  0  0  0  0  0  0
    4.4448   -0.3336    0.1812 O   0  0  0  0  0  0  0  0  0  0  0  0
    8.8317   -1.4302   -1.9503 O   0  0  0  0  0  0  0  0  0  0  0  0
    8.4316   -2.2345   -4.6286 C   0  0  0  0  0  0  0  0  0  0  0  0
    8.1573   -1.1933   -5.7385 C   0  0  0  0  0  0  0  0  0  0  0  0
    6.7245   -1.2842   -6.2267 C   0  0  0  0  0  0  0  0  0  0  0  0
    3.8394   -2.5517   -4.9376 O   0  0  0  0  0  0  0  0  0  0  0  0
    1.2256    2.0508   -4.7972 C   0  0  0  0  0  0  0  0  0  0  0  0
    0.0999    2.7271   -4.3400 C   0  0  0  0  0  0  0  0  0  0  0  0
   -0.1721    2.7619   -2.9512 C   0  0  0  0  0  0  0  0  0  0  0  0
    0.6645    2.1224   -2.0675 C   0  0  0  0  0  0  0  0  0  0  0  0
    1.7704    1.4509   -2.5123 C   0  0  0  0  0  0  0  0  0  0  0  0
    2.0815    1.4048   -3.8950 C   0  0  0  0  0  0  0  0  0  0  0  0
    3.7738   -0.1620    4.3541 F   0  0  0  0  0  0  0  0  0  0  0  0
  1  2  1  0  0  0  0
  2  3  1  0  0  0  0
  2  5  1  0  0  0  0
  3  4  1  0  0  0  0
  5  6  4  0  0  0  0
  5 10  4  0  0  0  0
  6  7  4  0  0  0  0
  7  8  4  0  0  0  0
  8  9  4  0  0  0  0
  9 10  4  0  0  0  0
 10 11  1  0  0  0  0
 11 12  4  0  0  0  0
 11 15  4  0  0  0  0
 12 13  1  0  0  0  0
 12 68  4  0  0  0  0
 13 14  1  0  0  0  0
 15 16  1  0  0  0  0
 15 67  4  0  0  0  0
 16 17  1  0  0  0  0
 17 18  1  0  0  0  0
 17 19  1  0  0  0  0
 17 20  1  0  0  0  0
 20 21  1  0  0  0  0
 21 22  1  0  0  0  0
 22 23  1  0  0  0  0
 22 66  2  0  0  0  0
 23 24  1  0  0  0  0
 23 65  1  0  0  0  0
 24 25  1  0  0  0  0
 25 26  1  0  0  0  0
 25 63  1  0  0  0  0
 26 27  1  0  0  0  0
 26 62  2  0  0  0  0
 27 28  1  0  0  0  0
 27 55  1  0  0  0  0
 28 29  1  0  0  0  0
 29 30  1  0  0  0  0
 29 54  2  0  0  0  0
 30 31  1  0  0  0  0
 30 34  1  0  0  0  0
 31 32  1  0  0  0  0
 31 33  1  0  0  0  0
 34 35  1  0  0  0  0
 34 53  1  0  0  0  0
 35 36  1  0  0  0  0
 35 52  2  0  0  0  0
 36 37  1  0  0  0  0
 36 51  1  0  0  0  0
 36 73  1  0  0  0  0
 37 38  1  0  0  0  0
 38 39  1  0  0  0  0
 39 40  1  0  0  0  0
 39 50  1  0  0  0  0
 40 41  1  0  0  0  0
 40 49  2  0  0  0  0
 41 42  1  0  0  0  0
 42 43  1  0  0  0  0
 43 44  1  0  0  0  0
 43 47  1  0  0  0  0
 43 48  1  0  0  0  0
 44 45  1  0  0  0  0
 44 46  1  0  0  0  0
 50 51  1  0  0  0  0
 55 56  1  0  0  0  0
 56 57  1  0  0  0  0
 56 61  1  0  0  0  0
 57 58  1  0  0  0  0
 58 59  1  0  0  0  0
 58 71  1  0  0  0  0
 59 60  1  0  0  0  0
 60 61  1  0  0  0  0
 63 64  1  0  0  0  0
 64 65  1  0  0  0  0
 67 68  4  0  0  0  0
 67 72  4  0  0  0  0
 68 69  4  0  0  0  0
 69 70  4  0  0  0  0
 70 71  4  0  0  0  0
 71 72  4  0  0  0  0
M  END
$$$$
