mol_ETKDG4_24
  PyMOL3.1          3D                             0

 73 79  0  0  0  0  0  0  0  0999 V2000
    5.2603    8.0489   -7.2917 C   0  0  0  0  0  0  0  0  0  0  0  0
    4.6636    6.6784   -7.0132 C   0  0  0  0  0  0  0  0  0  0  0  0
    5.6596    5.7140   -6.9880 O   0  0  0  0  0  0  0  0  0  0  0  0
    6.4374    5.5893   -5.7869 C   0  0  0  0  0  0  0  0  0  0  0  0
    3.6738    6.2816   -8.0430 C   0  0  0  0  0  0  0  0  0  0  0  0
    3.8785    6.6980   -9.2818 N   0  0  0  0  0  0  0  0  0  0  0  0
    2.9848    6.4768  -10.2473 C   0  0  0  0  0  0  0  0  0  0  0  0
    1.7945    5.7856   -9.9686 C   0  0  0  0  0  0  0  0  0  0  0  0
    1.5830    5.3219   -8.6796 C   0  0  0  0  0  0  0  0  0  0  0  0
    2.5306    5.5531   -7.7227 C   0  0  0  0  0  0  0  0  0  0  0  0
    2.4152    4.9855   -6.3892 C   0  0  0  0  0  0  0  0  0  0  0  0
    1.8123    5.5629   -5.3102 N   0  0  0  0  0  0  0  0  0  0  0  0
    1.1231    6.8499   -5.2745 C   0  0  0  0  0  0  0  0  0  0  0  0
   -0.3775    6.6537   -5.0979 C   0  0  0  0  0  0  0  0  0  0  0  0
    3.0123    3.8065   -5.9957 C   0  0  0  0  0  0  0  0  0  0  0  0
    3.7981    2.8952   -6.8624 C   0  0  0  0  0  0  0  0  0  0  0  0
    2.9708    1.7640   -7.5517 C   0  0  0  0  0  0  0  0  0  0  0  0
    1.4902    2.0782   -7.6691 C   0  0  0  0  0  0  0  0  0  0  0  0
    3.5392    1.4635   -8.9652 C   0  0  0  0  0  0  0  0  0  0  0  0
    3.0407    0.5648   -6.7565 C   0  0  0  0  0  0  0  0  0  0  0  0
    4.3566    0.3186   -6.1944 O   0  0  0  0  0  0  0  0  0  0  0  0
    4.6725   -0.7949   -5.4560 C   0  0  0  0  0  0  0  0  0  0  0  0
    6.0734   -0.7900   -4.9972 C   0  0  0  0  0  0  0  0  0  0  0  0
    6.2082   -1.7788   -3.9549 N   0  0  0  0  0  0  0  0  0  0  0  0
    7.4759   -1.8777   -3.4936 N   0  0  0  0  0  0  0  0  0  0  0  0
    7.8136   -1.4952   -2.2297 C   0  0  0  0  0  0  0  0  0  0  0  0
    6.7050   -1.0600   -1.2929 C   0  0  0  0  0  0  0  0  0  0  0  0
    6.9642   -1.4480    0.0779 N   0  0  0  0  0  0  0  0  0  0  0  0
    6.6505   -2.6296    0.5998 C   0  0  0  0  0  0  0  0  0  0  0  0
    6.9860   -2.7812    2.0545 C   0  0  0  0  0  0  0  0  0  0  0  0
    7.8227   -4.0340    2.4290 C   0  0  0  0  0  0  0  0  0  0  0  0
    8.0220   -4.0807    3.9506 C   0  0  0  0  0  0  0  0  0  0  0  0
    9.1967   -3.9768    1.7452 C   0  0  0  0  0  0  0  0  0  0  0  0
    5.7483   -2.8004    2.7940 N   0  0  0  0  0  0  0  0  0  0  0  0
    5.4600   -1.7043    3.5310 C   0  0  0  0  0  0  0  0  0  0  0  0
    4.2910   -1.7501    4.4909 C   0  0  0  0  0  0  0  0  0  0  0  0
    4.6745   -2.6839    5.6052 C   0  0  0  0  0  0  0  0  0  0  0  0
    3.5778   -2.8150    6.6019 C   0  0  0  0  0  0  0  0  0  0  0  0
    3.3943   -1.4881    7.1162 N   0  0  0  0  0  0  0  0  0  0  0  0
    3.8228   -1.2678    8.4044 C   0  0  0  0  0  0  0  0  0  0  0  0
    4.2420    0.0227    8.7716 C   0  0  0  0  0  0  0  0  0  0  0  0
    4.0881    1.1769    8.7921 C   0  0  0  0  0  0  0  0  0  0  0  0
    4.9755    2.3280    9.1889 C   0  0  0  0  0  0  0  0  0  0  0  0
    6.3772    1.9370    8.9977 N   0  0  0  0  0  0  0  0  0  0  0  0
    6.8620    1.8070    7.6634 C   0  0  0  0  0  0  0  0  0  0  0  0
    7.3215    1.9911   10.0688 C   0  0  0  0  0  0  0  0  0  0  0  0
    4.6992    2.6598   10.6527 C   0  0  0  0  0  0  0  0  0  0  0  0
    4.6723    3.5628    8.3440 C   0  0  0  0  0  0  0  0  0  0  0  0
    3.9098   -2.1592    9.2171 O   0  0  0  0  0  0  0  0  0  0  0  0
    2.9522   -0.5008    6.1261 C   0  0  0  0  0  0  0  0  0  0  0  0
    3.9897   -0.3738    5.0701 C   0  0  0  0  0  0  0  0  0  0  0  0
    6.1377   -0.6881    3.4501 O   0  0  0  0  0  0  0  0  0  0  0  0
    4.8968   -3.9966    2.6930 C   0  0  0  0  0  0  0  0  0  0  0  0
    6.0935   -3.5060   -0.0547 O   0  0  0  0  0  0  0  0  0  0  0  0
    6.6308    0.4645   -1.3596 C   0  0  0  0  0  0  0  0  0  0  0  0
    5.4169    1.0616   -0.7538 C   0  0  0  0  0  0  0  0  0  0  0  0
    4.2991    1.0159   -1.7666 C   0  0  0  0  0  0  0  0  0  0  0  0
    3.3012    1.9792   -1.3526 N   0  0  0  0  0  0  0  0  0  0  0  0
    2.7894    1.6993   -0.0156 C   0  0  0  0  0  0  0  0  0  0  0  0
    3.9065    1.3758    1.0018 C   0  0  0  0  0  0  0  0  0  0  0  0
    4.9219    0.4878    0.4184 O   0  0  0  0  0  0  0  0  0  0  0  0
    8.9610   -1.4127   -1.8668 O   0  0  0  0  0  0  0  0  0  0  0  0
    8.4719   -2.2953   -4.5050 C   0  0  0  0  0  0  0  0  0  0  0  0
    8.4229   -1.2399   -5.6291 C   0  0  0  0  0  0  0  0  0  0  0  0
    7.0267   -1.0922   -6.1562 C   0  0  0  0  0  0  0  0  0  0  0  0
    3.9588   -1.7771   -5.1469 O   0  0  0  0  0  0  0  0  0  0  0  0
    2.7666    3.6898   -4.5997 C   0  0  0  0  0  0  0  0  0  0  0  0
    1.9979    4.7778   -4.2080 C   0  0  0  0  0  0  0  0  0  0  0  0
    1.6242    4.9014   -2.8447 C   0  0  0  0  0  0  0  0  0  0  0  0
    2.0496    3.9634   -1.9103 C   0  0  0  0  0  0  0  0  0  0  0  0
    2.8324    2.8914   -2.3008 C   0  0  0  0  0  0  0  0  0  0  0  0
    3.2069    2.7468   -3.6664 C   0  0  0  0  0  0  0  0  0  0  0  0
    3.1457   -2.1388    3.8287 F   0  0  0  0  0  0  0  0  0  0  0  0
  1  2  1  0  0  0  0
  2  3  1  0  0  0  0
  2  5  1  0  0  0  0
  3  4  1  0  0  0  0
  5  6  4  0  0  0  0
  5 10  4  0  0  0  0
  6  7  4  0  0  0  0
  7  8  4  0  0  0  0
  8  9  4  0  0  0  0
  9 10  4  0  0  0  0
 10 11  1  0  0  0  0
 11 12  4  0  0  0  0
 11 15  4  0  0  0  0
 12 13  1  0  0  0  0
 12 68  4  0  0  0  0
 13 14  1  0  0  0  0
 15 16  1  0  0  0  0
 15 67  4  0  0  0  0
 16 17  1  0  0  0  0
 17 18  1  0  0  0  0
 17 19  1  0  0  0  0
 17 20  1  0  0  0  0
 20 21  1  0  0  0  0
 21 22  1  0  0  0  0
 22 23  1  0  0  0  0
 22 66  2  0  0  0  0
 23 24  1  0  0  0  0
 23 65  1  0  0  0  0
 24 25  1  0  0  0  0
 25 26  1  0  0  0  0
 25 63  1  0  0  0  0
 26 27  1  0  0  0  0
 26 62  2  0  0  0  0
 27 28  1  0  0  0  0
 27 55  1  0  0  0  0
 28 29  1  0  0  0  0
 29 30  1  0  0  0  0
 29 54  2  0  0  0  0
 30 31  1  0  0  0  0
 30 34  1  0  0  0  0
 31 32  1  0  0  0  0
 31 33  1  0  0  0  0
 34 35  1  0  0  0  0
 34 53  1  0  0  0  0
 35 36  1  0  0  0  0
 35 52  2  0  0  0  0
 36 37  1  0  0  0  0
 36 51  1  0  0  0  0
 36 73  1  0  0  0  0
 37 38  1  0  0  0  0
 38 39  1  0  0  0  0
 39 40  1  0  0  0  0
 39 50  1  0  0  0  0
 40 41  1  0  0  0  0
 40 49  2  0  0  0  0
 41 42  1  0  0  0  0
 42 43  1  0  0  0  0
 43 44  1  0  0  0  0
 43 47  1  0  0  0  0
 43 48  1  0  0  0  0
 44 45  1  0  0  0  0
 44 46  1  0  0  0  0
 50 51  1  0  0  0  0
 55 56  1  0  0  0  0
 56 57  1  0  0  0  0
 56 61  1  0  0  0  0
 57 58  1  0  0  0  0
 58 59  1  0  0  0  0
 58 71  1  0  0  0  0
 59 60  1  0  0  0  0
 60 61  1  0  0  0  0
 63 64  1  0  0  0  0
 64 65  1  0  0  0  0
 67 68  4  0  0  0  0
 67 72  4  0  0  0  0
 68 69  4  0  0  0  0
 69 70  4  0  0  0  0
 70 71  4  0  0  0  0
 71 72  4  0  0  0  0
M  END
$$$$
