mol_ETKDG3_20
  PyMOL3.1          3D                             0

 73 79  0  0  0  0  0  0  0  0999 V2000
    2.7991    6.9300   -8.1861 C   0  0  0  0  0  0  0  0  0  0  0  0
    2.6631    5.4333   -7.9162 C   0  0  0  0  0  0  0  0  0  0  0  0
    3.7022    4.7195   -8.5363 O   0  0  0  0  0  0  0  0  0  0  0  0
    5.0132    4.8512   -7.9913 C   0  0  0  0  0  0  0  0  0  0  0  0
    1.3927    4.8990   -8.4566 C   0  0  0  0  0  0  0  0  0  0  0  0
    1.1105    5.2062   -9.7068 N   0  0  0  0  0  0  0  0  0  0  0  0
   -0.0415    4.8405  -10.2704 C   0  0  0  0  0  0  0  0  0  0  0  0
   -0.9924    4.1180   -9.5480 C   0  0  0  0  0  0  0  0  0  0  0  0
   -0.7060    3.7663   -8.2408 C   0  0  0  0  0  0  0  0  0  0  0  0
    0.5037    4.1522   -7.6964 C   0  0  0  0  0  0  0  0  0  0  0  0
    0.8224    3.7363   -6.3374 C   0  0  0  0  0  0  0  0  0  0  0  0
    0.2355    4.2256   -5.2169 N   0  0  0  0  0  0  0  0  0  0  0  0
   -0.8310    5.2402   -5.1375 C   0  0  0  0  0  0  0  0  0  0  0  0
   -0.2877    6.5683   -4.6120 C   0  0  0  0  0  0  0  0  0  0  0  0
    1.7766    2.7946   -5.9842 C   0  0  0  0  0  0  0  0  0  0  0  0
    2.6828    2.0446   -6.8968 C   0  0  0  0  0  0  0  0  0  0  0  0
    2.1067    0.6894   -7.4752 C   0  0  0  0  0  0  0  0  0  0  0  0
    2.6723    0.4264   -8.8935 C   0  0  0  0  0  0  0  0  0  0  0  0
    0.5909    0.6594   -7.5238 C   0  0  0  0  0  0  0  0  0  0  0  0
    2.4690   -0.3904   -6.6320 C   0  0  0  0  0  0  0  0  0  0  0  0
    3.8615   -0.3509   -6.1249 O   0  0  0  0  0  0  0  0  0  0  0  0
    4.3875   -1.3152   -5.3020 C   0  0  0  0  0  0  0  0  0  0  0  0
    5.8030   -1.0807   -4.9206 C   0  0  0  0  0  0  0  0  0  0  0  0
    6.1191   -2.0056   -3.8618 N   0  0  0  0  0  0  0  0  0  0  0  0
    7.4195   -1.9606   -3.4538 N   0  0  0  0  0  0  0  0  0  0  0  0
    7.7479   -1.5574   -2.1971 C   0  0  0  0  0  0  0  0  0  0  0  0
    6.6210   -1.1981   -1.2526 C   0  0  0  0  0  0  0  0  0  0  0  0
    6.9102   -1.5303    0.1301 N   0  0  0  0  0  0  0  0  0  0  0  0
    6.5661   -2.6790    0.7223 C   0  0  0  0  0  0  0  0  0  0  0  0
    6.9172   -2.7662    2.1749 C   0  0  0  0  0  0  0  0  0  0  0  0
    7.7820   -3.9959    2.5706 C   0  0  0  0  0  0  0  0  0  0  0  0
    8.0344   -3.9825    4.0787 C   0  0  0  0  0  0  0  0  0  0  0  0
    9.1254   -3.9476    1.8375 C   0  0  0  0  0  0  0  0  0  0  0  0
    5.6905   -2.7554    2.9588 N   0  0  0  0  0  0  0  0  0  0  0  0
    5.4050   -1.6205    3.6525 C   0  0  0  0  0  0  0  0  0  0  0  0
    4.2877   -1.6293    4.6775 C   0  0  0  0  0  0  0  0  0  0  0  0
    4.7365   -2.4812    5.8435 C   0  0  0  0  0  0  0  0  0  0  0  0
    3.6907   -2.5114    6.9201 C   0  0  0  0  0  0  0  0  0  0  0  0
    3.5480   -1.1468    7.3535 N   0  0  0  0  0  0  0  0  0  0  0  0
    4.0492   -0.8446    8.5921 C   0  0  0  0  0  0  0  0  0  0  0  0
    4.5205    0.4473    8.8397 C   0  0  0  0  0  0  0  0  0  0  0  0
    4.4270    1.5193    9.2444 C   0  0  0  0  0  0  0  0  0  0  0  0
    5.4395    2.6181    9.3712 C   0  0  0  0  0  0  0  0  0  0  0  0
    6.6409    2.0937   10.0570 N   0  0  0  0  0  0  0  0  0  0  0  0
    6.3663    1.4849   11.3703 C   0  0  0  0  0  0  0  0  0  0  0  0
    7.7661    3.0390   10.1280 C   0  0  0  0  0  0  0  0  0  0  0  0
    5.8239    3.1022    7.9606 C   0  0  0  0  0  0  0  0  0  0  0  0
    4.8273    3.7793   10.1337 C   0  0  0  0  0  0  0  0  0  0  0  0
    4.1556   -1.6740    9.4735 O   0  0  0  0  0  0  0  0  0  0  0  0
    3.0499   -0.2254    6.3345 C   0  0  0  0  0  0  0  0  0  0  0  0
    4.0050   -0.2023    5.1913 C   0  0  0  0  0  0  0  0  0  0  0  0
    6.0608   -0.6022    3.4728 O   0  0  0  0  0  0  0  0  0  0  0  0
    4.8583   -3.9690    2.9557 C   0  0  0  0  0  0  0  0  0  0  0  0
    5.9860   -3.5775    0.1188 O   0  0  0  0  0  0  0  0  0  0  0  0
    6.4441    0.3149   -1.3438 C   0  0  0  0  0  0  0  0  0  0  0  0
    5.1913    0.8227   -0.7526 C   0  0  0  0  0  0  0  0  0  0  0  0
    4.0737    0.6468   -1.7532 C   0  0  0  0  0  0  0  0  0  0  0  0
    2.9660    1.4637   -1.3066 N   0  0  0  0  0  0  0  0  0  0  0  0
    2.5318    1.1219    0.0507 C   0  0  0  0  0  0  0  0  0  0  0  0
    3.7132    1.0210    1.0414 C   0  0  0  0  0  0  0  0  0  0  0  0
    4.7958    0.2331    0.4503 O   0  0  0  0  0  0  0  0  0  0  0  0
    8.8925   -1.4056   -1.8503 O   0  0  0  0  0  0  0  0  0  0  0  0
    8.4207   -2.2665   -4.4972 C   0  0  0  0  0  0  0  0  0  0  0  0
    8.1954   -1.2482   -5.6248 C   0  0  0  0  0  0  0  0  0  0  0  0
    6.7560   -1.2829   -6.1091 C   0  0  0  0  0  0  0  0  0  0  0  0
    3.8353   -2.3498   -4.8390 O   0  0  0  0  0  0  0  0  0  0  0  0
    1.7530    2.7481   -4.5707 C   0  0  0  0  0  0  0  0  0  0  0  0
    0.7868    3.6382   -4.1355 C   0  0  0  0  0  0  0  0  0  0  0  0
    0.5614    3.8046   -2.7366 C   0  0  0  0  0  0  0  0  0  0  0  0
    1.2917    3.0741   -1.8302 C   0  0  0  0  0  0  0  0  0  0  0  0
    2.2470    2.1757   -2.2534 C   0  0  0  0  0  0  0  0  0  0  0  0
    2.5034    2.0062   -3.6479 C   0  0  0  0  0  0  0  0  0  0  0  0
    3.1055   -2.0706    4.1169 F   0  0  0  0  0  0  0  0  0  0  0  0
  1  2  1  0  0  0  0
  2  3  1  0  0  0  0
  2  5  1  0  0  0  0
  3  4  1  0  0  0  0
  5  6  4  0  0  0  0
  5 10  4  0  0  0  0
  6  7  4  0  0  0  0
  7  8  4  0  0  0  0
  8  9  4  0  0  0  0
  9 10  4  0  0  0  0
 10 11  1  0  0  0  0
 11 12  4  0  0  0  0
 11 15  4  0  0  0  0
 12 13  1  0  0  0  0
 12 68  4  0  0  0  0
 13 14  1  0  0  0  0
 15 16  1  0  0  0  0
 15 67  4  0  0  0  0
 16 17  1  0  0  0  0
 17 18  1  0  0  0  0
 17 19  1  0  0  0  0
 17 20  1  0  0  0  0
 20 21  1  0  0  0  0
 21 22  1  0  0  0  0
 22 23  1  0  0  0  0
 22 66  2  0  0  0  0
 23 24  1  0  0  0  0
 23 65  1  0  0  0  0
 24 25  1  0  0  0  0
 25 26  1  0  0  0  0
 25 63  1  0  0  0  0
 26 27  1  0  0  0  0
 26 62  2  0  0  0  0
 27 28  1  0  0  0  0
 27 55  1  0  0  0  0
 28 29  1  0  0  0  0
 29 30  1  0  0  0  0
 29 54  2  0  0  0  0
 30 31  1  0  0  0  0
 30 34  1  0  0  0  0
 31 32  1  0  0  0  0
 31 33  1  0  0  0  0
 34 35  1  0  0  0  0
 34 53  1  0  0  0  0
 35 36  1  0  0  0  0
 35 52  2  0  0  0  0
 36 37  1  0  0  0  0
 36 51  1  0  0  0  0
 36 73  1  0  0  0  0
 37 38  1  0  0  0  0
 38 39  1  0  0  0  0
 39 40  1  0  0  0  0
 39 50  1  0  0  0  0
 40 41  1  0  0  0  0
 40 49  2  0  0  0  0
 41 42  1  0  0  0  0
 42 43  1  0  0  0  0
 43 44  1  0  0  0  0
 43 47  1  0  0  0  0
 43 48  1  0  0  0  0
 44 45  1  0  0  0  0
 44 46  1  0  0  0  0
 50 51  1  0  0  0  0
 55 56  1  0  0  0  0
 56 57  1  0  0  0  0
 56 61  1  0  0  0  0
 57 58  1  0  0  0  0
 58 59  1  0  0  0  0
 58 71  1  0  0  0  0
 59 60  1  0  0  0  0
 60 61  1  0  0  0  0
 63 64  1  0  0  0  0
 64 65  1  0  0  0  0
 67 68  4  0  0  0  0
 67 72  4  0  0  0  0
 68 69  4  0  0  0  0
 69 70  4  0  0  0  0
 70 71  4  0  0  0  0
 71 72  4  0  0  0  0
M  END
$$$$
