mol_ETKDG1_6
  PyMOL3.1          3D                             0

 73 79  0  0  0  0  0  0  0  0999 V2000
    4.6873    7.3935   -7.3754 C   0  0  0  0  0  0  0  0  0  0  0  0
    4.1820    5.9849   -7.1773 C   0  0  0  0  0  0  0  0  0  0  0  0
    5.2313    5.0732   -7.2040 O   0  0  0  0  0  0  0  0  0  0  0  0
    6.0668    5.0061   -6.0474 C   0  0  0  0  0  0  0  0  0  0  0  0
    3.2430    5.5825   -8.2415 C   0  0  0  0  0  0  0  0  0  0  0  0
    3.4751    6.0448   -9.4695 N   0  0  0  0  0  0  0  0  0  0  0  0
    2.6169    5.7988  -10.4600 C   0  0  0  0  0  0  0  0  0  0  0  0
    1.4639    5.0516  -10.2407 C   0  0  0  0  0  0  0  0  0  0  0  0
    1.2239    4.5430   -8.9795 C   0  0  0  0  0  0  0  0  0  0  0  0
    2.1281    4.8062   -7.9691 C   0  0  0  0  0  0  0  0  0  0  0  0
    1.9784    4.1998   -6.6564 C   0  0  0  0  0  0  0  0  0  0  0  0
    1.3097    4.7163   -5.5834 N   0  0  0  0  0  0  0  0  0  0  0  0
    0.5955    5.9793   -5.5262 C   0  0  0  0  0  0  0  0  0  0  0  0
   -0.9166    5.7393   -5.4962 C   0  0  0  0  0  0  0  0  0  0  0  0
    2.5915    3.0189   -6.2900 C   0  0  0  0  0  0  0  0  0  0  0  0
    3.4318    2.1804   -7.1606 C   0  0  0  0  0  0  0  0  0  0  0  0
    2.6897    0.9867   -7.8545 C   0  0  0  0  0  0  0  0  0  0  0  0
    1.1795    1.1929   -7.9017 C   0  0  0  0  0  0  0  0  0  0  0  0
    3.2321    0.7849   -9.2932 C   0  0  0  0  0  0  0  0  0  0  0  0
    2.9197   -0.2195   -7.1128 C   0  0  0  0  0  0  0  0  0  0  0  0
    4.2222   -0.2669   -6.4393 O   0  0  0  0  0  0  0  0  0  0  0  0
    4.5859   -1.2579   -5.5733 C   0  0  0  0  0  0  0  0  0  0  0  0
    5.9703   -1.0904   -5.0755 C   0  0  0  0  0  0  0  0  0  0  0  0
    6.1968   -2.0635   -4.0348 N   0  0  0  0  0  0  0  0  0  0  0  0
    7.4654   -2.0364   -3.5504 N   0  0  0  0  0  0  0  0  0  0  0  0
    7.7305   -1.6619   -2.2791 C   0  0  0  0  0  0  0  0  0  0  0  0
    6.5567   -1.3926   -1.3526 C   0  0  0  0  0  0  0  0  0  0  0  0
    6.8733   -1.6856    0.0083 N   0  0  0  0  0  0  0  0  0  0  0  0
    6.5587   -2.8384    0.6027 C   0  0  0  0  0  0  0  0  0  0  0  0
    6.9571   -2.8972    2.0461 C   0  0  0  0  0  0  0  0  0  0  0  0
    7.8236   -4.1276    2.4223 C   0  0  0  0  0  0  0  0  0  0  0  0
    8.0636   -4.1402    3.9329 C   0  0  0  0  0  0  0  0  0  0  0  0
    9.1788   -4.0475    1.6998 C   0  0  0  0  0  0  0  0  0  0  0  0
    5.7484   -2.8670    2.8514 N   0  0  0  0  0  0  0  0  0  0  0  0
    5.4664   -1.7116    3.4988 C   0  0  0  0  0  0  0  0  0  0  0  0
    4.3889   -1.7071    4.5471 C   0  0  0  0  0  0  0  0  0  0  0  0
    4.9405   -2.4278    5.7493 C   0  0  0  0  0  0  0  0  0  0  0  0
    3.9666   -2.4123    6.8808 C   0  0  0  0  0  0  0  0  0  0  0  0
    3.7502   -1.0162    7.1727 N   0  0  0  0  0  0  0  0  0  0  0  0
    4.3263   -0.5409    8.3169 C   0  0  0  0  0  0  0  0  0  0  0  0
    4.6381    0.8265    8.4406 C   0  0  0  0  0  0  0  0  0  0  0  0
    4.2334    1.9551    8.4015 C   0  0  0  0  0  0  0  0  0  0  0  0
    5.0047    3.2402    8.5822 C   0  0  0  0  0  0  0  0  0  0  0  0
    6.3644    3.0793    7.9906 N   0  0  0  0  0  0  0  0  0  0  0  0
    6.3748    3.0559    6.5277 C   0  0  0  0  0  0  0  0  0  0  0  0
    7.3913    3.9914    8.5168 C   0  0  0  0  0  0  0  0  0  0  0  0
    4.2737    4.4062    7.9026 C   0  0  0  0  0  0  0  0  0  0  0  0
    5.1208    3.5165   10.0751 C   0  0  0  0  0  0  0  0  0  0  0  0
    4.6216   -1.2751    9.2344 O   0  0  0  0  0  0  0  0  0  0  0  0
    3.1070   -0.2611    6.1040 C   0  0  0  0  0  0  0  0  0  0  0  0
    4.0083   -0.2635    4.9276 C   0  0  0  0  0  0  0  0  0  0  0  0
    6.1049   -0.6945    3.2652 O   0  0  0  0  0  0  0  0  0  0  0  0
    4.9339   -4.0803    2.9124 C   0  0  0  0  0  0  0  0  0  0  0  0
    5.9734   -3.7419    0.0270 O   0  0  0  0  0  0  0  0  0  0  0  0
    6.2060    0.0812   -1.4285 C   0  0  0  0  0  0  0  0  0  0  0  0
    4.8422    0.4041   -0.9276 C   0  0  0  0  0  0  0  0  0  0  0  0
    3.8618    0.2007   -2.0584 C   0  0  0  0  0  0  0  0  0  0  0  0
    2.6830    0.9650   -1.7262 N   0  0  0  0  0  0  0  0  0  0  0  0
    2.0843    0.6086   -0.4620 C   0  0  0  0  0  0  0  0  0  0  0  0
    3.1363    0.3762    0.6703 C   0  0  0  0  0  0  0  0  0  0  0  0
    4.3237   -0.3148    0.1593 O   0  0  0  0  0  0  0  0  0  0  0  0
    8.8651   -1.4780   -1.8959 O   0  0  0  0  0  0  0  0  0  0  0  0
    8.5197   -2.3277   -4.5364 C   0  0  0  0  0  0  0  0  0  0  0  0
    8.3748   -1.2692   -5.6488 C   0  0  0  0  0  0  0  0  0  0  0  0
    6.9794   -1.2783   -6.2062 C   0  0  0  0  0  0  0  0  0  0  0  0
    3.9317   -2.2528   -5.1736 O   0  0  0  0  0  0  0  0  0  0  0  0
    2.2838    2.8308   -4.9144 C   0  0  0  0  0  0  0  0  0  0  0  0
    1.4683    3.8776   -4.5086 C   0  0  0  0  0  0  0  0  0  0  0  0
    1.0243    3.9339   -3.1612 C   0  0  0  0  0  0  0  0  0  0  0  0
    1.4318    2.9610   -2.2645 C   0  0  0  0  0  0  0  0  0  0  0  0
    2.2532    1.9231   -2.6613 C   0  0  0  0  0  0  0  0  0  0  0  0
    2.6982    1.8481   -4.0081 C   0  0  0  0  0  0  0  0  0  0  0  0
    3.2201   -2.2791    4.0887 F   0  0  0  0  0  0  0  0  0  0  0  0
  1  2  1  0  0  0  0
  2  3  1  0  0  0  0
  2  5  1  0  0  0  0
  3  4  1  0  0  0  0
  5  6  4  0  0  0  0
  5 10  4  0  0  0  0
  6  7  4  0  0  0  0
  7  8  4  0  0  0  0
  8  9  4  0  0  0  0
  9 10  4  0  0  0  0
 10 11  1  0  0  0  0
 11 12  4  0  0  0  0
 11 15  4  0  0  0  0
 12 13  1  0  0  0  0
 12 68  4  0  0  0  0
 13 14  1  0  0  0  0
 15 16  1  0  0  0  0
 15 67  4  0  0  0  0
 16 17  1  0  0  0  0
 17 18  1  0  0  0  0
 17 19  1  0  0  0  0
 17 20  1  0  0  0  0
 20 21  1  0  0  0  0
 21 22  1  0  0  0  0
 22 23  1  0  0  0  0
 22 66  2  0  0  0  0
 23 24  1  0  0  0  0
 23 65  1  0  0  0  0
 24 25  1  0  0  0  0
 25 26  1  0  0  0  0
 25 63  1  0  0  0  0
 26 27  1  0  0  0  0
 26 62  2  0  0  0  0
 27 28  1  0  0  0  0
 27 55  1  0  0  0  0
 28 29  1  0  0  0  0
 29 30  1  0  0  0  0
 29 54  2  0  0  0  0
 30 31  1  0  0  0  0
 30 34  1  0  0  0  0
 31 32  1  0  0  0  0
 31 33  1  0  0  0  0
 34 35  1  0  0  0  0
 34 53  1  0  0  0  0
 35 36  1  0  0  0  0
 35 52  2  0  0  0  0
 36 37  1  0  0  0  0
 36 51  1  0  0  0  0
 36 73  1  0  0  0  0
 37 38  1  0  0  0  0
 38 39  1  0  0  0  0
 39 40  1  0  0  0  0
 39 50  1  0  0  0  0
 40 41  1  0  0  0  0
 40 49  2  0  0  0  0
 41 42  1  0  0  0  0
 42 43  1  0  0  0  0
 43 44  1  0  0  0  0
 43 47  1  0  0  0  0
 43 48  1  0  0  0  0
 44 45  1  0  0  0  0
 44 46  1  0  0  0  0
 50 51  1  0  0  0  0
 55 56  1  0  0  0  0
 56 57  1  0  0  0  0
 56 61  1  0  0  0  0
 57 58  1  0  0  0  0
 58 59  1  0  0  0  0
 58 71  1  0  0  0  0
 59 60  1  0  0  0  0
 60 61  1  0  0  0  0
 63 64  1  0  0  0  0
 64 65  1  0  0  0  0
 67 68  4  0  0  0  0
 67 72  4  0  0  0  0
 68 69  4  0  0  0  0
 69 70  4  0  0  0  0
 70 71  4  0  0  0  0
 71 72  4  0  0  0  0
M  END
$$$$
