mol_ETKDG3_19
  PyMOL3.1          3D                             0

 73 79  0  0  0  0  0  0  0  0999 V2000
    2.2221    6.7535   -8.0984 C   0  0  0  0  0  0  0  0  0  0  0  0
    2.2544    5.2326   -7.9814 C   0  0  0  0  0  0  0  0  0  0  0  0
    3.3707    4.6936   -8.6468 O   0  0  0  0  0  0  0  0  0  0  0  0
    4.6427    4.8479   -8.0365 C   0  0  0  0  0  0  0  0  0  0  0  0
    1.0622    4.6241   -8.6037 C   0  0  0  0  0  0  0  0  0  0  0  0
    0.8118    4.9778   -9.8486 N   0  0  0  0  0  0  0  0  0  0  0  0
   -0.2726    4.5424  -10.4921 C   0  0  0  0  0  0  0  0  0  0  0  0
   -1.1812    3.6929   -9.8610 C   0  0  0  0  0  0  0  0  0  0  0  0
   -0.9248    3.2963   -8.5623 C   0  0  0  0  0  0  0  0  0  0  0  0
    0.2131    3.7594   -7.9342 C   0  0  0  0  0  0  0  0  0  0  0  0
    0.5062    3.3085   -6.5788 C   0  0  0  0  0  0  0  0  0  0  0  0
   -0.1633    3.6981   -5.4659 N   0  0  0  0  0  0  0  0  0  0  0  0
   -1.3210    4.6082   -5.4006 C   0  0  0  0  0  0  0  0  0  0  0  0
   -0.9301    5.9656   -4.8361 C   0  0  0  0  0  0  0  0  0  0  0  0
    1.5192    2.4344   -6.2170 C   0  0  0  0  0  0  0  0  0  0  0  0
    2.5052    1.7901   -7.1181 C   0  0  0  0  0  0  0  0  0  0  0  0
    2.0614    0.3716   -7.6671 C   0  0  0  0  0  0  0  0  0  0  0  0
    2.7074    0.1071   -9.0489 C   0  0  0  0  0  0  0  0  0  0  0  0
    0.5567    0.2381   -7.7879 C   0  0  0  0  0  0  0  0  0  0  0  0
    2.4514   -0.6288   -6.7593 C   0  0  0  0  0  0  0  0  0  0  0  0
    3.8364   -0.5180   -6.2398 O   0  0  0  0  0  0  0  0  0  0  0  0
    4.3823   -1.4132   -5.3615 C   0  0  0  0  0  0  0  0  0  0  0  0
    5.7862   -1.1157   -4.9804 C   0  0  0  0  0  0  0  0  0  0  0  0
    6.1530   -2.0484   -3.9476 N   0  0  0  0  0  0  0  0  0  0  0  0
    7.4443   -1.9386   -3.5284 N   0  0  0  0  0  0  0  0  0  0  0  0
    7.7325   -1.5477   -2.2559 C   0  0  0  0  0  0  0  0  0  0  0  0
    6.5746   -1.2940   -1.3094 C   0  0  0  0  0  0  0  0  0  0  0  0
    6.8934   -1.6209    0.0585 N   0  0  0  0  0  0  0  0  0  0  0  0
    6.6011   -2.7864    0.6391 C   0  0  0  0  0  0  0  0  0  0  0  0
    6.9648   -2.8773    2.0920 C   0  0  0  0  0  0  0  0  0  0  0  0
    7.8791   -4.0748    2.4748 C   0  0  0  0  0  0  0  0  0  0  0  0
    8.1572   -4.0367    3.9792 C   0  0  0  0  0  0  0  0  0  0  0  0
    9.1989   -4.0001    1.7171 C   0  0  0  0  0  0  0  0  0  0  0  0
    5.7433   -2.9594    2.8624 N   0  0  0  0  0  0  0  0  0  0  0  0
    5.3821   -1.8735    3.5905 C   0  0  0  0  0  0  0  0  0  0  0  0
    4.2696   -2.0286    4.5968 C   0  0  0  0  0  0  0  0  0  0  0  0
    4.8512   -2.7999    5.7567 C   0  0  0  0  0  0  0  0  0  0  0  0
    3.8228   -3.0190    6.8150 C   0  0  0  0  0  0  0  0  0  0  0  0
    3.4729   -1.7034    7.2389 N   0  0  0  0  0  0  0  0  0  0  0  0
    4.0090   -1.3055    8.4401 C   0  0  0  0  0  0  0  0  0  0  0  0
    4.3730    0.0388    8.6379 C   0  0  0  0  0  0  0  0  0  0  0  0
    4.1848    1.1795    8.6626 C   0  0  0  0  0  0  0  0  0  0  0  0
    4.9639    2.4575    8.8062 C   0  0  0  0  0  0  0  0  0  0  0  0
    6.0832    2.5102    7.8634 N   0  0  0  0  0  0  0  0  0  0  0  0
    5.7040    2.5875    6.4611 C   0  0  0  0  0  0  0  0  0  0  0  0
    7.1662    1.5590    8.1186 C   0  0  0  0  0  0  0  0  0  0  0  0
    5.5356    2.5581   10.2255 C   0  0  0  0  0  0  0  0  0  0  0  0
    4.0259    3.6456    8.5846 C   0  0  0  0  0  0  0  0  0  0  0  0
    4.2442   -2.0962    9.3310 O   0  0  0  0  0  0  0  0  0  0  0  0
    2.7911   -0.8994    6.2253 C   0  0  0  0  0  0  0  0  0  0  0  0
    3.7386   -0.6783    5.0892 C   0  0  0  0  0  0  0  0  0  0  0  0
    5.9622   -0.8050    3.4652 O   0  0  0  0  0  0  0  0  0  0  0  0
    4.9952   -4.2207    2.8135 C   0  0  0  0  0  0  0  0  0  0  0  0
    6.0490   -3.6958    0.0313 O   0  0  0  0  0  0  0  0  0  0  0  0
    6.2180    0.1873   -1.3446 C   0  0  0  0  0  0  0  0  0  0  0  0
    4.8587    0.4891   -0.8187 C   0  0  0  0  0  0  0  0  0  0  0  0
    3.8997    0.4360   -1.9856 C   0  0  0  0  0  0  0  0  0  0  0  0
    2.6470    1.0325   -1.5614 N   0  0  0  0  0  0  0  0  0  0  0  0
    2.0851    0.3883   -0.3787 C   0  0  0  0  0  0  0  0  0  0  0  0
    3.1218    0.1688    0.7327 C   0  0  0  0  0  0  0  0  0  0  0  0
    4.3545   -0.3727    0.1693 O   0  0  0  0  0  0  0  0  0  0  0  0
    8.8612   -1.3373   -1.8942 O   0  0  0  0  0  0  0  0  0  0  0  0
    8.4659   -2.1663   -4.5717 C   0  0  0  0  0  0  0  0  0  0  0  0
    8.1850   -1.1487   -5.6806 C   0  0  0  0  0  0  0  0  0  0  0  0
    6.7497   -1.2500   -6.1711 C   0  0  0  0  0  0  0  0  0  0  0  0
    3.8537   -2.4364   -4.8425 O   0  0  0  0  0  0  0  0  0  0  0  0
    1.4451    2.3294   -4.8107 C   0  0  0  0  0  0  0  0  0  0  0  0
    0.3937    3.1161   -4.3853 C   0  0  0  0  0  0  0  0  0  0  0  0
    0.1016    3.2033   -2.9942 C   0  0  0  0  0  0  0  0  0  0  0  0
    0.8500    2.4952   -2.0914 C   0  0  0  0  0  0  0  0  0  0  0  0
    1.8991    1.7088   -2.5093 C   0  0  0  0  0  0  0  0  0  0  0  0
    2.2180    1.6137   -3.8916 C   0  0  0  0  0  0  0  0  0  0  0  0
    3.1722   -2.6487    4.0350 F   0  0  0  0  0  0  0  0  0  0  0  0
  1  2  1  0  0  0  0
  2  3  1  0  0  0  0
  2  5  1  0  0  0  0
  3  4  1  0  0  0  0
  5  6  4  0  0  0  0
  5 10  4  0  0  0  0
  6  7  4  0  0  0  0
  7  8  4  0  0  0  0
  8  9  4  0  0  0  0
  9 10  4  0  0  0  0
 10 11  1  0  0  0  0
 11 12  4  0  0  0  0
 11 15  4  0  0  0  0
 12 13  1  0  0  0  0
 12 68  4  0  0  0  0
 13 14  1  0  0  0  0
 15 16  1  0  0  0  0
 15 67  4  0  0  0  0
 16 17  1  0  0  0  0
 17 18  1  0  0  0  0
 17 19  1  0  0  0  0
 17 20  1  0  0  0  0
 20 21  1  0  0  0  0
 21 22  1  0  0  0  0
 22 23  1  0  0  0  0
 22 66  2  0  0  0  0
 23 24  1  0  0  0  0
 23 65  1  0  0  0  0
 24 25  1  0  0  0  0
 25 26  1  0  0  0  0
 25 63  1  0  0  0  0
 26 27  1  0  0  0  0
 26 62  2  0  0  0  0
 27 28  1  0  0  0  0
 27 55  1  0  0  0  0
 28 29  1  0  0  0  0
 29 30  1  0  0  0  0
 29 54  2  0  0  0  0
 30 31  1  0  0  0  0
 30 34  1  0  0  0  0
 31 32  1  0  0  0  0
 31 33  1  0  0  0  0
 34 35  1  0  0  0  0
 34 53  1  0  0  0  0
 35 36  1  0  0  0  0
 35 52  2  0  0  0  0
 36 37  1  0  0  0  0
 36 51  1  0  0  0  0
 36 73  1  0  0  0  0
 37 38  1  0  0  0  0
 38 39  1  0  0  0  0
 39 40  1  0  0  0  0
 39 50  1  0  0  0  0
 40 41  1  0  0  0  0
 40 49  2  0  0  0  0
 41 42  1  0  0  0  0
 42 43  1  0  0  0  0
 43 44  1  0  0  0  0
 43 47  1  0  0  0  0
 43 48  1  0  0  0  0
 44 45  1  0  0  0  0
 44 46  1  0  0  0  0
 50 51  1  0  0  0  0
 55 56  1  0  0  0  0
 56 57  1  0  0  0  0
 56 61  1  0  0  0  0
 57 58  1  0  0  0  0
 58 59  1  0  0  0  0
 58 71  1  0  0  0  0
 59 60  1  0  0  0  0
 60 61  1  0  0  0  0
 63 64  1  0  0  0  0
 64 65  1  0  0  0  0
 67 68  4  0  0  0  0
 67 72  4  0  0  0  0
 68 69  4  0  0  0  0
 69 70  4  0  0  0  0
 70 71  4  0  0  0  0
 71 72  4  0  0  0  0
M  END
$$$$
