mol_ETKDG1_7
  PyMOL3.1          3D                             0

 73 79  0  0  0  0  0  0  0  0999 V2000
    1.6888    7.3635   -8.1702 C   0  0  0  0  0  0  0  0  0  0  0  0
    1.9413    5.8866   -7.9084 C   0  0  0  0  0  0  0  0  0  0  0  0
    3.1446    5.4442   -8.4720 O   0  0  0  0  0  0  0  0  0  0  0  0
    4.3488    5.7903   -7.8002 C   0  0  0  0  0  0  0  0  0  0  0  0
    0.8896    5.0450   -8.5160 C   0  0  0  0  0  0  0  0  0  0  0  0
    0.5994    5.2749   -9.7986 N   0  0  0  0  0  0  0  0  0  0  0  0
   -0.3966    4.6219  -10.4032 C   0  0  0  0  0  0  0  0  0  0  0  0
   -1.1633    3.6839   -9.7163 C   0  0  0  0  0  0  0  0  0  0  0  0
   -0.8640    3.4223   -8.3972 C   0  0  0  0  0  0  0  0  0  0  0  0
    0.1896    4.0928   -7.7981 C   0  0  0  0  0  0  0  0  0  0  0  0
    0.5588    3.7416   -6.4354 C   0  0  0  0  0  0  0  0  0  0  0  0
   -0.0846    4.1754   -5.3202 N   0  0  0  0  0  0  0  0  0  0  0  0
   -1.2214    5.0896   -5.2403 C   0  0  0  0  0  0  0  0  0  0  0  0
   -0.7520    6.5228   -4.9110 C   0  0  0  0  0  0  0  0  0  0  0  0
    1.6193    2.9079   -6.0835 C   0  0  0  0  0  0  0  0  0  0  0  0
    2.6400    2.2866   -6.9804 C   0  0  0  0  0  0  0  0  0  0  0  0
    2.2599    0.8740   -7.5807 C   0  0  0  0  0  0  0  0  0  0  0  0
    0.7816    0.7231   -7.8965 C   0  0  0  0  0  0  0  0  0  0  0  0
    3.0731    0.6226   -8.8713 C   0  0  0  0  0  0  0  0  0  0  0  0
    2.5434   -0.1553   -6.6158 C   0  0  0  0  0  0  0  0  0  0  0  0
    3.9317   -0.1719   -6.1164 O   0  0  0  0  0  0  0  0  0  0  0  0
    4.4260   -1.1840   -5.3162 C   0  0  0  0  0  0  0  0  0  0  0  0
    5.8544   -1.0072   -4.9415 C   0  0  0  0  0  0  0  0  0  0  0  0
    6.1377   -1.9479   -3.8871 N   0  0  0  0  0  0  0  0  0  0  0  0
    7.4334   -1.9285   -3.4683 N   0  0  0  0  0  0  0  0  0  0  0  0
    7.7634   -1.5043   -2.2205 C   0  0  0  0  0  0  0  0  0  0  0  0
    6.6314   -1.1256   -1.2905 C   0  0  0  0  0  0  0  0  0  0  0  0
    6.9161   -1.4614    0.0765 N   0  0  0  0  0  0  0  0  0  0  0  0
    6.5770   -2.6341    0.6497 C   0  0  0  0  0  0  0  0  0  0  0  0
    6.9408   -2.7150    2.1070 C   0  0  0  0  0  0  0  0  0  0  0  0
    7.7977   -3.9451    2.5132 C   0  0  0  0  0  0  0  0  0  0  0  0
    8.0578   -3.9008    4.0258 C   0  0  0  0  0  0  0  0  0  0  0  0
    9.1447   -3.9160    1.7758 C   0  0  0  0  0  0  0  0  0  0  0  0
    5.7196   -2.6989    2.8875 N   0  0  0  0  0  0  0  0  0  0  0  0
    5.4247   -1.5448    3.5392 C   0  0  0  0  0  0  0  0  0  0  0  0
    4.3247   -1.5540    4.5628 C   0  0  0  0  0  0  0  0  0  0  0  0
    4.9302   -2.1179    5.8249 C   0  0  0  0  0  0  0  0  0  0  0  0
    3.9616   -2.0768    6.9638 C   0  0  0  0  0  0  0  0  0  0  0  0
    3.6414   -0.6869    7.1149 N   0  0  0  0  0  0  0  0  0  0  0  0
    4.2553   -0.0241    8.1664 C   0  0  0  0  0  0  0  0  0  0  0  0
    4.5882    1.3586    8.0645 C   0  0  0  0  0  0  0  0  0  0  0  0
    4.3159    2.4295    7.7663 C   0  0  0  0  0  0  0  0  0  0  0  0
    4.9333    3.8095    7.6444 C   0  0  0  0  0  0  0  0  0  0  0  0
    6.2309    3.7593    6.9146 N   0  0  0  0  0  0  0  0  0  0  0  0
    6.1446    3.2135    5.5550 C   0  0  0  0  0  0  0  0  0  0  0  0
    7.3428    3.1725    7.6913 C   0  0  0  0  0  0  0  0  0  0  0  0
    3.9776    4.7394    6.8813 C   0  0  0  0  0  0  0  0  0  0  0  0
    5.1690    4.3993    9.0315 C   0  0  0  0  0  0  0  0  0  0  0  0
    4.5744   -0.5946    9.1822 O   0  0  0  0  0  0  0  0  0  0  0  0
    2.8985   -0.1284    5.9851 C   0  0  0  0  0  0  0  0  0  0  0  0
    3.7918   -0.1337    4.7931 C   0  0  0  0  0  0  0  0  0  0  0  0
    6.0738   -0.5187    3.3419 O   0  0  0  0  0  0  0  0  0  0  0  0
    4.9151   -3.9183    2.9158 C   0  0  0  0  0  0  0  0  0  0  0  0
    6.0021   -3.5294    0.0493 O   0  0  0  0  0  0  0  0  0  0  0  0
    6.4363    0.3888   -1.3906 C   0  0  0  0  0  0  0  0  0  0  0  0
    5.1526    0.8895   -0.8226 C   0  0  0  0  0  0  0  0  0  0  0  0
    4.1034    0.8938   -1.9192 C   0  0  0  0  0  0  0  0  0  0  0  0
    2.9322    1.6098   -1.4313 N   0  0  0  0  0  0  0  0  0  0  0  0
    2.4187    1.0853   -0.1746 C   0  0  0  0  0  0  0  0  0  0  0  0
    3.5327    0.8674    0.8763 C   0  0  0  0  0  0  0  0  0  0  0  0
    4.6497    0.1506    0.2586 O   0  0  0  0  0  0  0  0  0  0  0  0
    8.9181   -1.3562   -1.8701 O   0  0  0  0  0  0  0  0  0  0  0  0
    8.4291   -2.2864   -4.4915 C   0  0  0  0  0  0  0  0  0  0  0  0
    8.2376   -1.2711   -5.6442 C   0  0  0  0  0  0  0  0  0  0  0  0
    6.7978   -1.2684   -6.1235 C   0  0  0  0  0  0  0  0  0  0  0  0
    3.8436   -2.2087   -4.8741 O   0  0  0  0  0  0  0  0  0  0  0  0
    1.5883    2.8417   -4.6754 C   0  0  0  0  0  0  0  0  0  0  0  0
    0.5318    3.6285   -4.2277 C   0  0  0  0  0  0  0  0  0  0  0  0
    0.2864    3.7459   -2.8364 C   0  0  0  0  0  0  0  0  0  0  0  0
    1.0887    3.0616   -1.9413 C   0  0  0  0  0  0  0  0  0  0  0  0
    2.1335    2.2718   -2.3774 C   0  0  0  0  0  0  0  0  0  0  0  0
    2.4096    2.1573   -3.7648 C   0  0  0  0  0  0  0  0  0  0  0  0
    3.2240   -2.2688    4.1499 F   0  0  0  0  0  0  0  0  0  0  0  0
  1  2  1  0  0  0  0
  2  3  1  0  0  0  0
  2  5  1  0  0  0  0
  3  4  1  0  0  0  0
  5  6  4  0  0  0  0
  5 10  4  0  0  0  0
  6  7  4  0  0  0  0
  7  8  4  0  0  0  0
  8  9  4  0  0  0  0
  9 10  4  0  0  0  0
 10 11  1  0  0  0  0
 11 12  4  0  0  0  0
 11 15  4  0  0  0  0
 12 13  1  0  0  0  0
 12 68  4  0  0  0  0
 13 14  1  0  0  0  0
 15 16  1  0  0  0  0
 15 67  4  0  0  0  0
 16 17  1  0  0  0  0
 17 18  1  0  0  0  0
 17 19  1  0  0  0  0
 17 20  1  0  0  0  0
 20 21  1  0  0  0  0
 21 22  1  0  0  0  0
 22 23  1  0  0  0  0
 22 66  2  0  0  0  0
 23 24  1  0  0  0  0
 23 65  1  0  0  0  0
 24 25  1  0  0  0  0
 25 26  1  0  0  0  0
 25 63  1  0  0  0  0
 26 27  1  0  0  0  0
 26 62  2  0  0  0  0
 27 28  1  0  0  0  0
 27 55  1  0  0  0  0
 28 29  1  0  0  0  0
 29 30  1  0  0  0  0
 29 54  2  0  0  0  0
 30 31  1  0  0  0  0
 30 34  1  0  0  0  0
 31 32  1  0  0  0  0
 31 33  1  0  0  0  0
 34 35  1  0  0  0  0
 34 53  1  0  0  0  0
 35 36  1  0  0  0  0
 35 52  2  0  0  0  0
 36 37  1  0  0  0  0
 36 51  1  0  0  0  0
 36 73  1  0  0  0  0
 37 38  1  0  0  0  0
 38 39  1  0  0  0  0
 39 40  1  0  0  0  0
 39 50  1  0  0  0  0
 40 41  1  0  0  0  0
 40 49  2  0  0  0  0
 41 42  1  0  0  0  0
 42 43  1  0  0  0  0
 43 44  1  0  0  0  0
 43 47  1  0  0  0  0
 43 48  1  0  0  0  0
 44 45  1  0  0  0  0
 44 46  1  0  0  0  0
 50 51  1  0  0  0  0
 55 56  1  0  0  0  0
 56 57  1  0  0  0  0
 56 61  1  0  0  0  0
 57 58  1  0  0  0  0
 58 59  1  0  0  0  0
 58 71  1  0  0  0  0
 59 60  1  0  0  0  0
 60 61  1  0  0  0  0
 63 64  1  0  0  0  0
 64 65  1  0  0  0  0
 67 68  4  0  0  0  0
 67 72  4  0  0  0  0
 68 69  4  0  0  0  0
 69 70  4  0  0  0  0
 70 71  4  0  0  0  0
 71 72  4  0  0  0  0
M  END
$$$$
