mol_ETKDG3_163
  PyMOL3.1          3D                             0

 73 79  0  0  0  0  0  0  0  0999 V2000
   -2.0419    3.1788   -0.7451 C   0  0  0  0  0  0  0  0  0  0  0  0
   -0.6170    3.5328   -0.9480 C   0  0  0  0  0  0  0  0  0  0  0  0
   -0.1804    3.4012   -2.2951 O   0  0  0  0  0  0  0  0  0  0  0  0
    0.1018    2.1035   -2.7549 C   0  0  0  0  0  0  0  0  0  0  0  0
   -0.3120    4.9139   -0.5129 C   0  0  0  0  0  0  0  0  0  0  0  0
   -0.4515    5.8822   -1.3935 N   0  0  0  0  0  0  0  0  0  0  0  0
   -0.2508    7.1699   -1.0594 C   0  0  0  0  0  0  0  0  0  0  0  0
    0.1044    7.5399    0.2433 C   0  0  0  0  0  0  0  0  0  0  0  0
    0.2437    6.5273    1.2035 C   0  0  0  0  0  0  0  0  0  0  0  0
    0.0540    5.2008    0.8118 C   0  0  0  0  0  0  0  0  0  0  0  0
    0.2591    4.1370    1.7730 C   0  0  0  0  0  0  0  0  0  0  0  0
   -0.6840    3.7162    2.6667 N   0  0  0  0  0  0  0  0  0  0  0  0
   -2.0689    4.2594    2.8686 C   0  0  0  0  0  0  0  0  0  0  0  0
   -2.2232    5.0156    4.1152 C   0  0  0  0  0  0  0  0  0  0  0  0
    1.4167    3.3141    1.8410 C   0  0  0  0  0  0  0  0  0  0  0  0
    2.7128    3.3433    1.0532 C   0  0  0  0  0  0  0  0  0  0  0  0
    3.8501    4.2832    1.6800 C   0  0  0  0  0  0  0  0  0  0  0  0
    4.9708    4.4083    0.6525 C   0  0  0  0  0  0  0  0  0  0  0  0
    3.3749    5.6708    1.8964 C   0  0  0  0  0  0  0  0  0  0  0  0
    4.3997    3.7487    2.9939 C   0  0  0  0  0  0  0  0  0  0  0  0
    5.3761    2.6202    2.9130 O   0  0  0  0  0  0  0  0  0  0  0  0
    6.5982    2.5582    3.6503 C   0  0  0  0  0  0  0  0  0  0  0  0
    7.4574    1.3135    3.4987 C   0  0  0  0  0  0  0  0  0  0  0  0
    7.0294    0.5819    2.3549 N   0  0  0  0  0  0  0  0  0  0  0  0
    7.7181   -0.5747    2.0225 N   0  0  0  0  0  0  0  0  0  0  0  0
    7.0564   -1.7462    1.8271 C   0  0  0  0  0  0  0  0  0  0  0  0
    5.5664   -1.7652    2.0048 C   0  0  0  0  0  0  0  0  0  0  0  0
    4.9214   -2.5299    0.9586 N   0  0  0  0  0  0  0  0  0  0  0  0
    4.3731   -1.9621   -0.1307 C   0  0  0  0  0  0  0  0  0  0  0  0
    3.6450   -2.8853   -1.0548 C   0  0  0  0  0  0  0  0  0  0  0  0
    4.3822   -3.1621   -2.4053 C   0  0  0  0  0  0  0  0  0  0  0  0
    3.7743   -4.2878   -3.1659 C   0  0  0  0  0  0  0  0  0  0  0  0
    5.8631   -3.2783   -2.2612 C   0  0  0  0  0  0  0  0  0  0  0  0
    2.3235   -2.3182   -1.2734 N   0  0  0  0  0  0  0  0  0  0  0  0
    1.3042   -2.6856   -0.4317 C   0  0  0  0  0  0  0  0  0  0  0  0
   -0.0946   -2.1444   -0.4990 C   0  0  0  0  0  0  0  0  0  0  0  0
   -0.2475   -1.1239    0.6067 C   0  0  0  0  0  0  0  0  0  0  0  0
   -1.5669   -0.5038    0.5627 C   0  0  0  0  0  0  0  0  0  0  0  0
   -2.6206   -1.5177    0.5246 N   0  0  0  0  0  0  0  0  0  0  0  0
   -3.6944   -1.3815    1.3252 C   0  0  0  0  0  0  0  0  0  0  0  0
   -4.6392   -2.3891    1.4312 C   0  0  0  0  0  0  0  0  0  0  0  0
   -5.4992   -3.1041    1.6692 C   0  0  0  0  0  0  0  0  0  0  0  0
   -6.4186   -4.0971    2.0110 C   0  0  0  0  0  0  0  0  0  0  0  0
   -6.6067   -4.0456    3.4195 N   0  0  0  0  0  0  0  0  0  0  0  0
   -6.6753   -2.7829    4.0424 C   0  0  0  0  0  0  0  0  0  0  0  0
   -6.9535   -5.1487    4.1894 C   0  0  0  0  0  0  0  0  0  0  0  0
   -7.7504   -3.8609    1.3076 C   0  0  0  0  0  0  0  0  0  0  0  0
   -5.8910   -5.4327    1.5486 C   0  0  0  0  0  0  0  0  0  0  0  0
   -3.8389   -0.3530    1.9892 O   0  0  0  0  0  0  0  0  0  0  0  0
   -2.4770   -2.6162   -0.3972 C   0  0  0  0  0  0  0  0  0  0  0  0
   -1.1530   -3.2264   -0.3789 C   0  0  0  0  0  0  0  0  0  0  0  0
    1.5596   -3.5091    0.4683 O   0  0  0  0  0  0  0  0  0  0  0  0
    2.1746   -1.2955   -2.3143 C   0  0  0  0  0  0  0  0  0  0  0  0
    4.3943   -0.7561   -0.2712 O   0  0  0  0  0  0  0  0  0  0  0  0
    5.1968   -2.3534    3.4224 C   0  0  0  0  0  0  0  0  0  0  0  0
    3.6883   -2.2932    3.7978 C   0  0  0  0  0  0  0  0  0  0  0  0
    3.3384   -0.8746    4.0772 C   0  0  0  0  0  0  0  0  0  0  0  0
    1.9867   -0.7152    4.5551 N   0  0  0  0  0  0  0  0  0  0  0  0
    1.6026   -1.5733    5.6713 C   0  0  0  0  0  0  0  0  0  0  0  0
    2.1014   -3.0128    5.4609 C   0  0  0  0  0  0  0  0  0  0  0  0
    3.5020   -3.0652    5.0186 O   0  0  0  0  0  0  0  0  0  0  0  0
    7.6516   -2.7940    1.5402 O   0  0  0  0  0  0  0  0  0  0  0  0
    9.1566   -0.4317    1.8236 C   0  0  0  0  0  0  0  0  0  0  0  0
    9.7668    0.3573    2.9969 C   0  0  0  0  0  0  0  0  0  0  0  0
    8.9754    1.6186    3.3398 C   0  0  0  0  0  0  0  0  0  0  0  0
    7.0211    3.4527    4.4036 O   0  0  0  0  0  0  0  0  0  0  0  0
    1.0859    2.3750    2.8365 C   0  0  0  0  0  0  0  0  0  0  0  0
   -0.1893    2.6585    3.3250 C   0  0  0  0  0  0  0  0  0  0  0  0
   -0.7559    1.8108    4.3331 C   0  0  0  0  0  0  0  0  0  0  0  0
    0.0038    0.7090    4.7452 C   0  0  0  0  0  0  0  0  0  0  0  0
    1.2676    0.4328    4.2030 C   0  0  0  0  0  0  0  0  0  0  0  0
    1.8233    1.2892    3.2552 C   0  0  0  0  0  0  0  0  0  0  0  0
   -0.3739   -1.5645   -1.6979 F   0  0  0  0  0  0  0  0  0  0  0  0
  1  2  1  0  0  0  0
  2  3  1  0  0  0  0
  2  5  1  0  0  0  0
  3  4  1  0  0  0  0
  5  6  4  0  0  0  0
  5 10  4  0  0  0  0
  6  7  4  0  0  0  0
  7  8  4  0  0  0  0
  8  9  4  0  0  0  0
  9 10  4  0  0  0  0
 10 11  1  0  0  0  0
 11 12  4  0  0  0  0
 11 15  4  0  0  0  0
 12 13  1  0  0  0  0
 12 68  4  0  0  0  0
 13 14  1  0  0  0  0
 15 16  1  0  0  0  0
 15 67  4  0  0  0  0
 16 17  1  0  0  0  0
 17 18  1  0  0  0  0
 17 19  1  0  0  0  0
 17 20  1  0  0  0  0
 20 21  1  0  0  0  0
 21 22  1  0  0  0  0
 22 23  1  0  0  0  0
 22 66  2  0  0  0  0
 23 24  1  0  0  0  0
 23 65  1  0  0  0  0
 24 25  1  0  0  0  0
 25 26  1  0  0  0  0
 25 63  1  0  0  0  0
 26 27  1  0  0  0  0
 26 62  2  0  0  0  0
 27 28  1  0  0  0  0
 27 55  1  0  0  0  0
 28 29  1  0  0  0  0
 29 30  1  0  0  0  0
 29 54  2  0  0  0  0
 30 31  1  0  0  0  0
 30 34  1  0  0  0  0
 31 32  1  0  0  0  0
 31 33  1  0  0  0  0
 34 35  1  0  0  0  0
 34 53  1  0  0  0  0
 35 36  1  0  0  0  0
 35 52  2  0  0  0  0
 36 37  1  0  0  0  0
 36 51  1  0  0  0  0
 36 73  1  0  0  0  0
 37 38  1  0  0  0  0
 38 39  1  0  0  0  0
 39 40  1  0  0  0  0
 39 50  1  0  0  0  0
 40 41  1  0  0  0  0
 40 49  2  0  0  0  0
 41 42  1  0  0  0  0
 42 43  1  0  0  0  0
 43 44  1  0  0  0  0
 43 47  1  0  0  0  0
 43 48  1  0  0  0  0
 44 45  1  0  0  0  0
 44 46  1  0  0  0  0
 50 51  1  0  0  0  0
 55 56  1  0  0  0  0
 56 57  1  0  0  0  0
 56 61  1  0  0  0  0
 57 58  1  0  0  0  0
 58 59  1  0  0  0  0
 58 71  1  0  0  0  0
 59 60  1  0  0  0  0
 60 61  1  0  0  0  0
 63 64  1  0  0  0  0
 64 65  1  0  0  0  0
 67 68  4  0  0  0  0
 67 72  4  0  0  0  0
 68 69  4  0  0  0  0
 69 70  4  0  0  0  0
 70 71  4  0  0  0  0
 71 72  4  0  0  0  0
M  END
$$$$
