mol_ETKDG5_260
  PyMOL3.1          3D                             0

 73 79  0  0  0  0  0  0  0  0999 V2000
    0.0451    3.2997   -3.7795 C   0  0  0  0  0  0  0  0  0  0  0  0
    0.9401    3.4324   -2.6119 C   0  0  0  0  0  0  0  0  0  0  0  0
    0.4306    4.1179   -1.5042 O   0  0  0  0  0  0  0  0  0  0  0  0
   -0.5921    3.4578   -0.7789 C   0  0  0  0  0  0  0  0  0  0  0  0
    2.2323    4.0478   -2.9439 C   0  0  0  0  0  0  0  0  0  0  0  0
    2.2424    5.3106   -3.3356 N   0  0  0  0  0  0  0  0  0  0  0  0
    3.3870    5.9117   -3.7319 C   0  0  0  0  0  0  0  0  0  0  0  0
    4.6035    5.2267   -3.7517 C   0  0  0  0  0  0  0  0  0  0  0  0
    4.6094    3.8841   -3.3473 C   0  0  0  0  0  0  0  0  0  0  0  0
    3.4036    3.3153   -2.9052 C   0  0  0  0  0  0  0  0  0  0  0  0
    3.4286    1.9604   -2.4166 C   0  0  0  0  0  0  0  0  0  0  0  0
    3.2715    0.8784   -3.2136 N   0  0  0  0  0  0  0  0  0  0  0  0
    3.0145    0.8517   -4.6950 C   0  0  0  0  0  0  0  0  0  0  0  0
    4.2191    0.5234   -5.4662 C   0  0  0  0  0  0  0  0  0  0  0  0
    3.5375    1.5708   -1.0566 C   0  0  0  0  0  0  0  0  0  0  0  0
    3.5538    2.3843    0.2131 C   0  0  0  0  0  0  0  0  0  0  0  0
    4.9761    2.8302    0.7387 C   0  0  0  0  0  0  0  0  0  0  0  0
    5.6710    3.8081   -0.1840 C   0  0  0  0  0  0  0  0  0  0  0  0
    4.7666    3.6169    1.9986 C   0  0  0  0  0  0  0  0  0  0  0  0
    5.8746    1.6157    0.9689 C   0  0  0  0  0  0  0  0  0  0  0  0
    5.7323    1.0317    2.3579 O   0  0  0  0  0  0  0  0  0  0  0  0
    6.7730    1.0162    3.3341 C   0  0  0  0  0  0  0  0  0  0  0  0
    6.5082    0.3584    4.6785 C   0  0  0  0  0  0  0  0  0  0  0  0
    5.1047    0.3394    4.9602 N   0  0  0  0  0  0  0  0  0  0  0  0
    4.7158   -0.2143    6.1754 N   0  0  0  0  0  0  0  0  0  0  0  0
    3.8035   -1.2274    6.2280 C   0  0  0  0  0  0  0  0  0  0  0  0
    3.1941   -1.7021    4.9516 C   0  0  0  0  0  0  0  0  0  0  0  0
    1.7952   -2.0089    5.1052 N   0  0  0  0  0  0  0  0  0  0  0  0
    0.8192   -1.1234    4.8548 C   0  0  0  0  0  0  0  0  0  0  0  0
   -0.5636   -1.6662    4.9003 C   0  0  0  0  0  0  0  0  0  0  0  0
   -1.3679   -1.2301    6.1788 C   0  0  0  0  0  0  0  0  0  0  0  0
   -2.7496   -1.8033    6.2115 C   0  0  0  0  0  0  0  0  0  0  0  0
   -0.6065   -1.5404    7.4447 C   0  0  0  0  0  0  0  0  0  0  0  0
   -1.1892   -1.2840    3.6431 N   0  0  0  0  0  0  0  0  0  0  0  0
   -1.0166   -2.1059    2.5577 C   0  0  0  0  0  0  0  0  0  0  0  0
   -1.5531   -1.8225    1.1858 C   0  0  0  0  0  0  0  0  0  0  0  0
   -1.7114   -3.0776    0.3256 C   0  0  0  0  0  0  0  0  0  0  0  0
   -2.1750   -2.7083   -1.0389 C   0  0  0  0  0  0  0  0  0  0  0  0
   -1.3235   -1.6557   -1.6317 N   0  0  0  0  0  0  0  0  0  0  0  0
   -0.8180   -1.7336   -2.8923 C   0  0  0  0  0  0  0  0  0  0  0  0
   -0.9411   -2.8886   -3.6252 C   0  0  0  0  0  0  0  0  0  0  0  0
   -1.0112   -3.7842   -4.3317 C   0  0  0  0  0  0  0  0  0  0  0  0
   -1.1412   -4.9802   -5.0628 C   0  0  0  0  0  0  0  0  0  0  0  0
   -0.7566   -4.7719   -6.4224 N   0  0  0  0  0  0  0  0  0  0  0  0
    0.6088   -4.7832   -6.7603 C   0  0  0  0  0  0  0  0  0  0  0  0
   -1.6367   -4.1155   -7.3080 C   0  0  0  0  0  0  0  0  0  0  0  0
   -2.5821   -5.4613   -4.9917 C   0  0  0  0  0  0  0  0  0  0  0  0
   -0.3021   -6.0690   -4.4243 C   0  0  0  0  0  0  0  0  0  0  0  0
   -0.2086   -0.7610   -3.3800 O   0  0  0  0  0  0  0  0  0  0  0  0
   -1.0400   -0.5040   -0.8314 C   0  0  0  0  0  0  0  0  0  0  0  0
   -0.5619   -0.8818    0.5152 C   0  0  0  0  0  0  0  0  0  0  0  0
   -0.3391   -3.1419    2.7193 O   0  0  0  0  0  0  0  0  0  0  0  0
   -1.8591    0.0277    3.5550 C   0  0  0  0  0  0  0  0  0  0  0  0
    1.0840    0.0080    4.5007 O   0  0  0  0  0  0  0  0  0  0  0  0
    3.9498   -2.9774    4.4081 C   0  0  0  0  0  0  0  0  0  0  0  0
    3.4166   -3.4990    3.0389 C   0  0  0  0  0  0  0  0  0  0  0  0
    3.9604   -2.5965    1.9838 C   0  0  0  0  0  0  0  0  0  0  0  0
    3.6113   -3.0550    0.6525 N   0  0  0  0  0  0  0  0  0  0  0  0
    3.9636   -4.4533    0.3754 C   0  0  0  0  0  0  0  0  0  0  0  0
    3.5125   -5.3673    1.5326 C   0  0  0  0  0  0  0  0  0  0  0  0
    3.9445   -4.8367    2.8366 O   0  0  0  0  0  0  0  0  0  0  0  0
    3.4966   -1.7768    7.3028 O   0  0  0  0  0  0  0  0  0  0  0  0
    5.2939    0.3989    7.3726 C   0  0  0  0  0  0  0  0  0  0  0  0
    6.8182    0.4895    7.2021 C   0  0  0  0  0  0  0  0  0  0  0  0
    7.2176    1.1021    5.8564 C   0  0  0  0  0  0  0  0  0  0  0  0
    7.9145    1.4919    3.1479 O   0  0  0  0  0  0  0  0  0  0  0  0
    3.5178    0.1671   -1.1164 C   0  0  0  0  0  0  0  0  0  0  0  0
    3.3352   -0.2117   -2.4425 C   0  0  0  0  0  0  0  0  0  0  0  0
    3.2086   -1.6056   -2.7629 C   0  0  0  0  0  0  0  0  0  0  0  0
    3.2958   -2.5190   -1.7087 C   0  0  0  0  0  0  0  0  0  0  0  0
    3.5090   -2.1138   -0.3846 C   0  0  0  0  0  0  0  0  0  0  0  0
    3.6024   -0.7486   -0.0747 C   0  0  0  0  0  0  0  0  0  0  0  0
   -2.7971   -1.2490    1.2532 F   0  0  0  0  0  0  0  0  0  0  0  0
  1  2  1  0  0  0  0
  2  3  1  0  0  0  0
  2  5  1  0  0  0  0
  3  4  1  0  0  0  0
  5  6  4  0  0  0  0
  5 10  4  0  0  0  0
  6  7  4  0  0  0  0
  7  8  4  0  0  0  0
  8  9  4  0  0  0  0
  9 10  4  0  0  0  0
 10 11  1  0  0  0  0
 11 12  4  0  0  0  0
 11 15  4  0  0  0  0
 12 13  1  0  0  0  0
 12 68  4  0  0  0  0
 13 14  1  0  0  0  0
 15 16  1  0  0  0  0
 15 67  4  0  0  0  0
 16 17  1  0  0  0  0
 17 18  1  0  0  0  0
 17 19  1  0  0  0  0
 17 20  1  0  0  0  0
 20 21  1  0  0  0  0
 21 22  1  0  0  0  0
 22 23  1  0  0  0  0
 22 66  2  0  0  0  0
 23 24  1  0  0  0  0
 23 65  1  0  0  0  0
 24 25  1  0  0  0  0
 25 26  1  0  0  0  0
 25 63  1  0  0  0  0
 26 27  1  0  0  0  0
 26 62  2  0  0  0  0
 27 28  1  0  0  0  0
 27 55  1  0  0  0  0
 28 29  1  0  0  0  0
 29 30  1  0  0  0  0
 29 54  2  0  0  0  0
 30 31  1  0  0  0  0
 30 34  1  0  0  0  0
 31 32  1  0  0  0  0
 31 33  1  0  0  0  0
 34 35  1  0  0  0  0
 34 53  1  0  0  0  0
 35 36  1  0  0  0  0
 35 52  2  0  0  0  0
 36 37  1  0  0  0  0
 36 51  1  0  0  0  0
 36 73  1  0  0  0  0
 37 38  1  0  0  0  0
 38 39  1  0  0  0  0
 39 40  1  0  0  0  0
 39 50  1  0  0  0  0
 40 41  1  0  0  0  0
 40 49  2  0  0  0  0
 41 42  1  0  0  0  0
 42 43  1  0  0  0  0
 43 44  1  0  0  0  0
 43 47  1  0  0  0  0
 43 48  1  0  0  0  0
 44 45  1  0  0  0  0
 44 46  1  0  0  0  0
 50 51  1  0  0  0  0
 55 56  1  0  0  0  0
 56 57  1  0  0  0  0
 56 61  1  0  0  0  0
 57 58  1  0  0  0  0
 58 59  1  0  0  0  0
 58 71  1  0  0  0  0
 59 60  1  0  0  0  0
 60 61  1  0  0  0  0
 63 64  1  0  0  0  0
 64 65  1  0  0  0  0
 67 68  4  0  0  0  0
 67 72  4  0  0  0  0
 68 69  4  0  0  0  0
 69 70  4  0  0  0  0
 70 71  4  0  0  0  0
 71 72  4  0  0  0  0
M  END
$$$$
