mol_ETKDG2_132
  PyMOL3.1          3D                             0

 73 79  0  0  0  0  0  0  0  0999 V2000
   -1.7093   -2.3309    3.6192 C   0  0  0  0  0  0  0  0  0  0  0  0
   -2.2234   -1.2211    2.7954 C   0  0  0  0  0  0  0  0  0  0  0  0
   -2.5765   -0.0447    3.4858 O   0  0  0  0  0  0  0  0  0  0  0  0
   -1.5360    0.7384    4.0147 C   0  0  0  0  0  0  0  0  0  0  0  0
   -3.4109   -1.5893    2.0072 C   0  0  0  0  0  0  0  0  0  0  0  0
   -4.5453   -1.7933    2.6564 N   0  0  0  0  0  0  0  0  0  0  0  0
   -5.6701   -2.1548    2.0026 C   0  0  0  0  0  0  0  0  0  0  0  0
   -5.6854   -2.3463    0.6190 C   0  0  0  0  0  0  0  0  0  0  0  0
   -4.4958   -2.1477   -0.0822 C   0  0  0  0  0  0  0  0  0  0  0  0
   -3.3573   -1.7490    0.6336 C   0  0  0  0  0  0  0  0  0  0  0  0
   -2.1488   -1.5250   -0.1068 C   0  0  0  0  0  0  0  0  0  0  0  0
   -1.3407   -2.5278   -0.5215 N   0  0  0  0  0  0  0  0  0  0  0  0
   -1.4969   -4.0062   -0.2873 C   0  0  0  0  0  0  0  0  0  0  0  0
   -2.0525   -4.6942   -1.4684 C   0  0  0  0  0  0  0  0  0  0  0  0
   -1.5959   -0.2700   -0.4417 C   0  0  0  0  0  0  0  0  0  0  0  0
   -2.0171    1.1289   -0.0938 C   0  0  0  0  0  0  0  0  0  0  0  0
   -3.0752    1.8001   -1.0590 C   0  0  0  0  0  0  0  0  0  0  0  0
   -4.4619    1.1967   -0.9043 C   0  0  0  0  0  0  0  0  0  0  0  0
   -3.2327    3.2314   -0.6383 C   0  0  0  0  0  0  0  0  0  0  0  0
   -2.6565    1.7203   -2.5081 C   0  0  0  0  0  0  0  0  0  0  0  0
   -1.7808    2.8649   -2.9771 O   0  0  0  0  0  0  0  0  0  0  0  0
   -1.9313    3.5436   -4.2190 C   0  0  0  0  0  0  0  0  0  0  0  0
   -0.9769    4.6796   -4.5668 C   0  0  0  0  0  0  0  0  0  0  0  0
   -0.3380    5.1659   -3.3786 N   0  0  0  0  0  0  0  0  0  0  0  0
    0.5215    6.2579   -3.4959 N   0  0  0  0  0  0  0  0  0  0  0  0
    1.8066    6.2019   -3.0407 C   0  0  0  0  0  0  0  0  0  0  0  0
    2.3073    4.9253   -2.4514 C   0  0  0  0  0  0  0  0  0  0  0  0
    3.2318    5.1429   -1.3622 N   0  0  0  0  0  0  0  0  0  0  0  0
    2.8912    5.0112   -0.0741 C   0  0  0  0  0  0  0  0  0  0  0  0
    4.0065    5.0874    0.9115 C   0  0  0  0  0  0  0  0  0  0  0  0
    4.1226    6.4699    1.6291 C   0  0  0  0  0  0  0  0  0  0  0  0
    5.3025    6.5585    2.5422 C   0  0  0  0  0  0  0  0  0  0  0  0
    4.0572    7.6210    0.6653 C   0  0  0  0  0  0  0  0  0  0  0  0
    3.7904    3.9769    1.8345 N   0  0  0  0  0  0  0  0  0  0  0  0
    4.2343    2.7361    1.4683 C   0  0  0  0  0  0  0  0  0  0  0  0
    3.9856    1.4749    2.2427 C   0  0  0  0  0  0  0  0  0  0  0  0
    4.8932    0.3191    1.8114 C   0  0  0  0  0  0  0  0  0  0  0  0
    4.4977   -0.9550    2.4911 C   0  0  0  0  0  0  0  0  0  0  0  0
    3.0477   -1.1944    2.3310 N   0  0  0  0  0  0  0  0  0  0  0  0
    2.4937   -2.3382    1.8456 C   0  0  0  0  0  0  0  0  0  0  0  0
    3.2130   -3.2840    1.1620 C   0  0  0  0  0  0  0  0  0  0  0  0
    3.7207   -4.1752    0.6391 C   0  0  0  0  0  0  0  0  0  0  0  0
    4.5046   -5.1664    0.0444 C   0  0  0  0  0  0  0  0  0  0  0  0
    4.9352   -6.1311    0.9921 N   0  0  0  0  0  0  0  0  0  0  0  0
    5.4440   -7.3703    0.5993 C   0  0  0  0  0  0  0  0  0  0  0  0
    4.8014   -5.9132    2.3723 C   0  0  0  0  0  0  0  0  0  0  0  0
    3.7002   -5.8216   -1.0623 C   0  0  0  0  0  0  0  0  0  0  0  0
    5.7274   -4.5214   -0.5966 C   0  0  0  0  0  0  0  0  0  0  0  0
    1.2663   -2.5315    1.9757 O   0  0  0  0  0  0  0  0  0  0  0  0
    2.1770   -0.1324    2.6981 C   0  0  0  0  0  0  0  0  0  0  0  0
    2.5434    1.0978    1.9579 C   0  0  0  0  0  0  0  0  0  0  0  0
    4.8525    2.6485    0.3915 O   0  0  0  0  0  0  0  0  0  0  0  0
    2.9859    4.2047    3.0519 C   0  0  0  0  0  0  0  0  0  0  0  0
    1.7480    4.7182    0.2287 O   0  0  0  0  0  0  0  0  0  0  0  0
    3.0310    4.0960   -3.5772 C   0  0  0  0  0  0  0  0  0  0  0  0
    3.4978    2.6952   -3.1200 C   0  0  0  0  0  0  0  0  0  0  0  0
    2.2990    1.8258   -3.1552 C   0  0  0  0  0  0  0  0  0  0  0  0
    2.6295    0.4649   -2.8416 N   0  0  0  0  0  0  0  0  0  0  0  0
    3.7320   -0.1020   -3.6431 C   0  0  0  0  0  0  0  0  0  0  0  0
    4.9173    0.8713   -3.6965 C   0  0  0  0  0  0  0  0  0  0  0  0
    4.4780    2.2182   -4.0717 O   0  0  0  0  0  0  0  0  0  0  0  0
    2.5871    7.1632   -3.1621 O   0  0  0  0  0  0  0  0  0  0  0  0
   -0.0647    7.4647   -4.0771 C   0  0  0  0  0  0  0  0  0  0  0  0
   -0.7607    7.0841   -5.4033 C   0  0  0  0  0  0  0  0  0  0  0  0
   -1.7070    5.8838   -5.2420 C   0  0  0  0  0  0  0  0  0  0  0  0
   -2.8051    3.2578   -5.0690 O   0  0  0  0  0  0  0  0  0  0  0  0
   -0.4307   -0.6006   -1.1385 C   0  0  0  0  0  0  0  0  0  0  0  0
   -0.3099   -1.9850   -1.1565 C   0  0  0  0  0  0  0  0  0  0  0  0
    0.8306   -2.5868   -1.7804 C   0  0  0  0  0  0  0  0  0  0  0  0
    1.7837   -1.7308   -2.3198 C   0  0  0  0  0  0  0  0  0  0  0  0
    1.6460   -0.3496   -2.2836 C   0  0  0  0  0  0  0  0  0  0  0  0
    0.5257    0.2401   -1.6801 C   0  0  0  0  0  0  0  0  0  0  0  0
    4.1951    1.6613    3.5977 F   0  0  0  0  0  0  0  0  0  0  0  0
  1  2  1  0  0  0  0
  2  3  1  0  0  0  0
  2  5  1  0  0  0  0
  3  4  1  0  0  0  0
  5  6  4  0  0  0  0
  5 10  4  0  0  0  0
  6  7  4  0  0  0  0
  7  8  4  0  0  0  0
  8  9  4  0  0  0  0
  9 10  4  0  0  0  0
 10 11  1  0  0  0  0
 11 12  4  0  0  0  0
 11 15  4  0  0  0  0
 12 13  1  0  0  0  0
 12 68  4  0  0  0  0
 13 14  1  0  0  0  0
 15 16  1  0  0  0  0
 15 67  4  0  0  0  0
 16 17  1  0  0  0  0
 17 18  1  0  0  0  0
 17 19  1  0  0  0  0
 17 20  1  0  0  0  0
 20 21  1  0  0  0  0
 21 22  1  0  0  0  0
 22 23  1  0  0  0  0
 22 66  2  0  0  0  0
 23 24  1  0  0  0  0
 23 65  1  0  0  0  0
 24 25  1  0  0  0  0
 25 26  1  0  0  0  0
 25 63  1  0  0  0  0
 26 27  1  0  0  0  0
 26 62  2  0  0  0  0
 27 28  1  0  0  0  0
 27 55  1  0  0  0  0
 28 29  1  0  0  0  0
 29 30  1  0  0  0  0
 29 54  2  0  0  0  0
 30 31  1  0  0  0  0
 30 34  1  0  0  0  0
 31 32  1  0  0  0  0
 31 33  1  0  0  0  0
 34 35  1  0  0  0  0
 34 53  1  0  0  0  0
 35 36  1  0  0  0  0
 35 52  2  0  0  0  0
 36 37  1  0  0  0  0
 36 51  1  0  0  0  0
 36 73  1  0  0  0  0
 37 38  1  0  0  0  0
 38 39  1  0  0  0  0
 39 40  1  0  0  0  0
 39 50  1  0  0  0  0
 40 41  1  0  0  0  0
 40 49  2  0  0  0  0
 41 42  1  0  0  0  0
 42 43  1  0  0  0  0
 43 44  1  0  0  0  0
 43 47  1  0  0  0  0
 43 48  1  0  0  0  0
 44 45  1  0  0  0  0
 44 46  1  0  0  0  0
 50 51  1  0  0  0  0
 55 56  1  0  0  0  0
 56 57  1  0  0  0  0
 56 61  1  0  0  0  0
 57 58  1  0  0  0  0
 58 59  1  0  0  0  0
 58 71  1  0  0  0  0
 59 60  1  0  0  0  0
 60 61  1  0  0  0  0
 63 64  1  0  0  0  0
 64 65  1  0  0  0  0
 67 68  4  0  0  0  0
 67 72  4  0  0  0  0
 68 69  4  0  0  0  0
 69 70  4  0  0  0  0
 70 71  4  0  0  0  0
 71 72  4  0  0  0  0
M  END
$$$$
