mol_ETKDG2_123
  PyMOL3.1          3D                             0

 73 79  0  0  0  0  0  0  0  0999 V2000
   -1.6877    2.0325   -4.2348 C   0  0  0  0  0  0  0  0  0  0  0  0
   -2.4899    0.8128   -3.9829 C   0  0  0  0  0  0  0  0  0  0  0  0
   -3.8765    1.0309   -3.7821 O   0  0  0  0  0  0  0  0  0  0  0  0
   -4.2713    1.5016   -2.5136 C   0  0  0  0  0  0  0  0  0  0  0  0
   -2.3514   -0.1996   -5.0508 C   0  0  0  0  0  0  0  0  0  0  0  0
   -3.1037   -0.0741   -6.1300 N   0  0  0  0  0  0  0  0  0  0  0  0
   -3.0019   -0.9439   -7.1628 C   0  0  0  0  0  0  0  0  0  0  0  0
   -2.0888   -2.0071   -7.1410 C   0  0  0  0  0  0  0  0  0  0  0  0
   -1.2736   -2.1519   -6.0098 C   0  0  0  0  0  0  0  0  0  0  0  0
   -1.4306   -1.2419   -4.9503 C   0  0  0  0  0  0  0  0  0  0  0  0
   -0.6233   -1.4205   -3.7696 C   0  0  0  0  0  0  0  0  0  0  0  0
    0.6759   -1.0394   -3.6904 N   0  0  0  0  0  0  0  0  0  0  0  0
    1.5106   -0.3743   -4.7480 C   0  0  0  0  0  0  0  0  0  0  0  0
    2.5152   -1.2638   -5.3397 C   0  0  0  0  0  0  0  0  0  0  0  0
   -1.0834   -1.9082   -2.5204 C   0  0  0  0  0  0  0  0  0  0  0  0
   -2.4557   -2.3099   -2.0501 C   0  0  0  0  0  0  0  0  0  0  0  0
   -2.9360   -3.7758   -2.3966 C   0  0  0  0  0  0  0  0  0  0  0  0
   -3.2066   -3.9664   -3.8746 C   0  0  0  0  0  0  0  0  0  0  0  0
   -4.2770   -3.9817   -1.7393 C   0  0  0  0  0  0  0  0  0  0  0  0
   -1.9622   -4.8228   -1.9260 C   0  0  0  0  0  0  0  0  0  0  0  0
   -2.1163   -5.2150   -0.4681 O   0  0  0  0  0  0  0  0  0  0  0  0
   -1.9385   -6.5398    0.0276 C   0  0  0  0  0  0  0  0  0  0  0  0
   -2.1143   -6.8087    1.5190 C   0  0  0  0  0  0  0  0  0  0  0  0
   -2.8497   -5.7390    2.1413 N   0  0  0  0  0  0  0  0  0  0  0  0
   -3.1595   -5.8720    3.4999 N   0  0  0  0  0  0  0  0  0  0  0  0
   -2.8266   -4.8997    4.4046 C   0  0  0  0  0  0  0  0  0  0  0  0
   -2.0325   -3.7148    3.9351 C   0  0  0  0  0  0  0  0  0  0  0  0
   -2.4527   -2.4863    4.5787 N   0  0  0  0  0  0  0  0  0  0  0  0
   -3.2126   -1.5604    3.9681 C   0  0  0  0  0  0  0  0  0  0  0  0
   -3.4019   -0.2743    4.6964 C   0  0  0  0  0  0  0  0  0  0  0  0
   -4.7629   -0.1252    5.4499 C   0  0  0  0  0  0  0  0  0  0  0  0
   -4.7388    0.9878    6.4569 C   0  0  0  0  0  0  0  0  0  0  0  0
   -5.2643   -1.4121    6.0270 C   0  0  0  0  0  0  0  0  0  0  0  0
   -3.1672    0.7962    3.7242 N   0  0  0  0  0  0  0  0  0  0  0  0
   -1.8675    1.1761    3.4866 C   0  0  0  0  0  0  0  0  0  0  0  0
   -1.4287    2.1760    2.4450 C   0  0  0  0  0  0  0  0  0  0  0  0
   -0.0270    2.7292    2.7319 C   0  0  0  0  0  0  0  0  0  0  0  0
    0.4527    3.5912    1.5943 C   0  0  0  0  0  0  0  0  0  0  0  0
    0.3517    2.8316    0.3327 N   0  0  0  0  0  0  0  0  0  0  0  0
    1.4338    2.5670   -0.4681 C   0  0  0  0  0  0  0  0  0  0  0  0
    2.7036    2.5718    0.0630 C   0  0  0  0  0  0  0  0  0  0  0  0
    3.7989    2.5614    0.4370 C   0  0  0  0  0  0  0  0  0  0  0  0
    5.0472    2.5654    1.1026 C   0  0  0  0  0  0  0  0  0  0  0  0
    6.1547    2.4273    0.2243 N   0  0  0  0  0  0  0  0  0  0  0  0
    6.1571    3.1045   -1.0083 C   0  0  0  0  0  0  0  0  0  0  0  0
    7.4013    1.9526    0.6802 C   0  0  0  0  0  0  0  0  0  0  0  0
    5.1779    3.8867    1.8880 C   0  0  0  0  0  0  0  0  0  0  0  0
    5.0508    1.4379    2.1149 C   0  0  0  0  0  0  0  0  0  0  0  0
    1.2835    2.2510   -1.6567 O   0  0  0  0  0  0  0  0  0  0  0  0
   -0.9431    2.3074    0.0016 C   0  0  0  0  0  0  0  0  0  0  0  0
   -1.4070    1.4128    1.1206 C   0  0  0  0  0  0  0  0  0  0  0  0
   -0.9796    0.6210    4.1587 O   0  0  0  0  0  0  0  0  0  0  0  0
   -4.3140    1.3289    2.9573 C   0  0  0  0  0  0  0  0  0  0  0  0
   -3.6082   -1.7348    2.8275 O   0  0  0  0  0  0  0  0  0  0  0  0
   -0.5034   -3.9528    4.2457 C   0  0  0  0  0  0  0  0  0  0  0  0
    0.4399   -2.8582    3.6886 C   0  0  0  0  0  0  0  0  0  0  0  0
    0.5877   -3.1117    2.2316 C   0  0  0  0  0  0  0  0  0  0  0  0
    1.5432   -2.2269    1.6220 N   0  0  0  0  0  0  0  0  0  0  0  0
    2.8531   -2.1665    2.2933 C   0  0  0  0  0  0  0  0  0  0  0  0
    2.6808   -2.0126    3.8119 C   0  0  0  0  0  0  0  0  0  0  0  0
    1.7289   -3.0058    4.3410 O   0  0  0  0  0  0  0  0  0  0  0  0
   -3.1201   -4.9960    5.6085 O   0  0  0  0  0  0  0  0  0  0  0  0
   -3.9151   -7.0659    3.8679 C   0  0  0  0  0  0  0  0  0  0  0  0
   -3.2133   -8.3092    3.2693 C   0  0  0  0  0  0  0  0  0  0  0  0
   -2.8790   -8.1379    1.7861 C   0  0  0  0  0  0  0  0  0  0  0  0
   -1.6483   -7.5266   -0.6925 O   0  0  0  0  0  0  0  0  0  0  0  0
    0.0547   -1.8364   -1.7011 C   0  0  0  0  0  0  0  0  0  0  0  0
    1.1026   -1.2959   -2.4481 C   0  0  0  0  0  0  0  0  0  0  0  0
    2.3698   -1.0722   -1.8152 C   0  0  0  0  0  0  0  0  0  0  0  0
    2.4727   -1.3951   -0.4602 C   0  0  0  0  0  0  0  0  0  0  0  0
    1.4058   -1.9287    0.2635 C   0  0  0  0  0  0  0  0  0  0  0  0
    0.1708   -2.1511   -0.3584 C   0  0  0  0  0  0  0  0  0  0  0  0
   -2.2816    3.2620    2.3819 F   0  0  0  0  0  0  0  0  0  0  0  0
  1  2  1  0  0  0  0
  2  3  1  0  0  0  0
  2  5  1  0  0  0  0
  3  4  1  0  0  0  0
  5  6  4  0  0  0  0
  5 10  4  0  0  0  0
  6  7  4  0  0  0  0
  7  8  4  0  0  0  0
  8  9  4  0  0  0  0
  9 10  4  0  0  0  0
 10 11  1  0  0  0  0
 11 12  4  0  0  0  0
 11 15  4  0  0  0  0
 12 13  1  0  0  0  0
 12 68  4  0  0  0  0
 13 14  1  0  0  0  0
 15 16  1  0  0  0  0
 15 67  4  0  0  0  0
 16 17  1  0  0  0  0
 17 18  1  0  0  0  0
 17 19  1  0  0  0  0
 17 20  1  0  0  0  0
 20 21  1  0  0  0  0
 21 22  1  0  0  0  0
 22 23  1  0  0  0  0
 22 66  2  0  0  0  0
 23 24  1  0  0  0  0
 23 65  1  0  0  0  0
 24 25  1  0  0  0  0
 25 26  1  0  0  0  0
 25 63  1  0  0  0  0
 26 27  1  0  0  0  0
 26 62  2  0  0  0  0
 27 28  1  0  0  0  0
 27 55  1  0  0  0  0
 28 29  1  0  0  0  0
 29 30  1  0  0  0  0
 29 54  2  0  0  0  0
 30 31  1  0  0  0  0
 30 34  1  0  0  0  0
 31 32  1  0  0  0  0
 31 33  1  0  0  0  0
 34 35  1  0  0  0  0
 34 53  1  0  0  0  0
 35 36  1  0  0  0  0
 35 52  2  0  0  0  0
 36 37  1  0  0  0  0
 36 51  1  0  0  0  0
 36 73  1  0  0  0  0
 37 38  1  0  0  0  0
 38 39  1  0  0  0  0
 39 40  1  0  0  0  0
 39 50  1  0  0  0  0
 40 41  1  0  0  0  0
 40 49  2  0  0  0  0
 41 42  1  0  0  0  0
 42 43  1  0  0  0  0
 43 44  1  0  0  0  0
 43 47  1  0  0  0  0
 43 48  1  0  0  0  0
 44 45  1  0  0  0  0
 44 46  1  0  0  0  0
 50 51  1  0  0  0  0
 55 56  1  0  0  0  0
 56 57  1  0  0  0  0
 56 61  1  0  0  0  0
 57 58  1  0  0  0  0
 58 59  1  0  0  0  0
 58 71  1  0  0  0  0
 59 60  1  0  0  0  0
 60 61  1  0  0  0  0
 63 64  1  0  0  0  0
 64 65  1  0  0  0  0
 67 68  4  0  0  0  0
 67 72  4  0  0  0  0
 68 69  4  0  0  0  0
 69 70  4  0  0  0  0
 70 71  4  0  0  0  0
 71 72  4  0  0  0  0
M  END
$$$$
