mol_ETKDG0_309
  PyMOL3.1          3D                             0

 73 79  0  0  0  0  0  0  0  0999 V2000
   -4.7954   -0.4571   -3.1554 C   0  0  0  0  0  0  0  0  0  0  0  0
   -3.7440    0.4611   -3.6407 C   0  0  0  0  0  0  0  0  0  0  0  0
   -3.1312    0.0825   -4.8668 O   0  0  0  0  0  0  0  0  0  0  0  0
   -2.2174   -0.9835   -4.8244 C   0  0  0  0  0  0  0  0  0  0  0  0
   -4.2303    1.8374   -3.8103 C   0  0  0  0  0  0  0  0  0  0  0  0
   -4.7717    2.1614   -4.9701 N   0  0  0  0  0  0  0  0  0  0  0  0
   -5.2723    3.3932   -5.1874 C   0  0  0  0  0  0  0  0  0  0  0  0
   -5.2536    4.3787   -4.1962 C   0  0  0  0  0  0  0  0  0  0  0  0
   -4.6993    4.0537   -2.9549 C   0  0  0  0  0  0  0  0  0  0  0  0
   -4.1667    2.7681   -2.7741 C   0  0  0  0  0  0  0  0  0  0  0  0
   -3.5632    2.4471   -1.4982 C   0  0  0  0  0  0  0  0  0  0  0  0
   -4.2806    2.1532   -0.3817 N   0  0  0  0  0  0  0  0  0  0  0  0
   -5.7737    2.0717   -0.2440 C   0  0  0  0  0  0  0  0  0  0  0  0
   -6.3556    3.2305    0.4399 C   0  0  0  0  0  0  0  0  0  0  0  0
   -2.1702    2.3270   -1.2464 C   0  0  0  0  0  0  0  0  0  0  0  0
   -0.9828    2.4699   -2.1697 C   0  0  0  0  0  0  0  0  0  0  0  0
   -0.3853    3.9456   -2.2576 C   0  0  0  0  0  0  0  0  0  0  0  0
   -1.4115    4.9895   -2.6013 C   0  0  0  0  0  0  0  0  0  0  0  0
    0.6075    3.9745   -3.3980 C   0  0  0  0  0  0  0  0  0  0  0  0
    0.2717    4.3503   -0.9459 C   0  0  0  0  0  0  0  0  0  0  0  0
    1.6348    3.7599   -0.7119 O   0  0  0  0  0  0  0  0  0  0  0  0
    2.7976    4.5274   -0.4093 C   0  0  0  0  0  0  0  0  0  0  0  0
    4.0782    3.7807   -0.0631 C   0  0  0  0  0  0  0  0  0  0  0  0
    3.9999    2.4439   -0.5755 N   0  0  0  0  0  0  0  0  0  0  0  0
    5.1065    1.6272   -0.3981 N   0  0  0  0  0  0  0  0  0  0  0  0
    4.9983    0.4137    0.2142 C   0  0  0  0  0  0  0  0  0  0  0  0
    3.6540   -0.0326    0.7255 C   0  0  0  0  0  0  0  0  0  0  0  0
    3.4567   -1.4462    0.4838 N   0  0  0  0  0  0  0  0  0  0  0  0
    2.6873   -1.9261   -0.5099 C   0  0  0  0  0  0  0  0  0  0  0  0
    2.5308   -3.4152   -0.5426 C   0  0  0  0  0  0  0  0  0  0  0  0
    3.3176   -4.1008   -1.7199 C   0  0  0  0  0  0  0  0  0  0  0  0
    4.6754   -3.5382   -1.9089 C   0  0  0  0  0  0  0  0  0  0  0  0
    3.3431   -5.5987   -1.5722 C   0  0  0  0  0  0  0  0  0  0  0  0
    1.0911   -3.6753   -0.6061 N   0  0  0  0  0  0  0  0  0  0  0  0
    0.3600   -3.6015    0.5611 C   0  0  0  0  0  0  0  0  0  0  0  0
   -1.1313   -3.7885    0.6528 C   0  0  0  0  0  0  0  0  0  0  0  0
   -1.6389   -3.7868    2.1035 C   0  0  0  0  0  0  0  0  0  0  0  0
   -3.1199   -3.8551    2.1613 C   0  0  0  0  0  0  0  0  0  0  0  0
   -3.7339   -2.8394    1.2865 N   0  0  0  0  0  0  0  0  0  0  0  0
   -4.7164   -1.9901    1.6980 C   0  0  0  0  0  0  0  0  0  0  0  0
   -5.0092   -1.7979    3.0317 C   0  0  0  0  0  0  0  0  0  0  0  0
   -5.3832   -1.5933    4.0999 C   0  0  0  0  0  0  0  0  0  0  0  0
   -5.7128   -1.4214    5.4570 C   0  0  0  0  0  0  0  0  0  0  0  0
   -7.1232   -1.5804    5.6450 N   0  0  0  0  0  0  0  0  0  0  0  0
   -7.6589   -2.8482    5.9481 C   0  0  0  0  0  0  0  0  0  0  0  0
   -8.0273   -0.6010    5.1579 C   0  0  0  0  0  0  0  0  0  0  0  0
   -4.9279   -2.4407    6.2771 C   0  0  0  0  0  0  0  0  0  0  0  0
   -5.2732   -0.0500    5.9450 C   0  0  0  0  0  0  0  0  0  0  0  0
   -5.3391   -1.3237    0.8543 O   0  0  0  0  0  0  0  0  0  0  0  0
   -3.2495   -2.7537   -0.0537 C   0  0  0  0  0  0  0  0  0  0  0  0
   -1.7791   -2.6169   -0.0633 C   0  0  0  0  0  0  0  0  0  0  0  0
    0.9851   -3.3430    1.6086 O   0  0  0  0  0  0  0  0  0  0  0  0
    0.4635   -3.8940   -1.9184 C   0  0  0  0  0  0  0  0  0  0  0  0
    2.0691   -1.1754   -1.2382 O   0  0  0  0  0  0  0  0  0  0  0  0
    3.5347    0.2653    2.2809 C   0  0  0  0  0  0  0  0  0  0  0  0
    2.1330   -0.0312    2.8896 C   0  0  0  0  0  0  0  0  0  0  0  0
    1.2100    1.0362    2.4180 C   0  0  0  0  0  0  0  0  0  0  0  0
   -0.1071    0.9074    2.9807 N   0  0  0  0  0  0  0  0  0  0  0  0
   -0.1601    0.8111    4.4385 C   0  0  0  0  0  0  0  0  0  0  0  0
    0.9016   -0.1805    4.9518 C   0  0  0  0  0  0  0  0  0  0  0  0
    2.2256    0.0510    4.3406 O   0  0  0  0  0  0  0  0  0  0  0  0
    5.9868   -0.3153    0.3828 O   0  0  0  0  0  0  0  0  0  0  0  0
    6.3587    2.1249   -0.9659 C   0  0  0  0  0  0  0  0  0  0  0  0
    6.5862    3.5699   -0.4692 C   0  0  0  0  0  0  0  0  0  0  0  0
    5.3488    4.4512   -0.6677 C   0  0  0  0  0  0  0  0  0  0  0  0
    2.8414    5.7763   -0.4129 O   0  0  0  0  0  0  0  0  0  0  0  0
   -2.1192    1.9649    0.1138 C   0  0  0  0  0  0  0  0  0  0  0  0
   -3.4213    1.8802    0.6036 C   0  0  0  0  0  0  0  0  0  0  0  0
   -3.6333    1.5096    1.9666 C   0  0  0  0  0  0  0  0  0  0  0  0
   -2.5060    1.1973    2.7271 C   0  0  0  0  0  0  0  0  0  0  0  0
   -1.2139    1.2578    2.2059 C   0  0  0  0  0  0  0  0  0  0  0  0
   -1.0101    1.6572    0.8797 C   0  0  0  0  0  0  0  0  0  0  0  0
   -1.4923   -4.9957    0.0706 F   0  0  0  0  0  0  0  0  0  0  0  0
  1  2  1  0  0  0  0
  2  3  1  0  0  0  0
  2  5  1  0  0  0  0
  3  4  1  0  0  0  0
  5  6  4  0  0  0  0
  5 10  4  0  0  0  0
  6  7  4  0  0  0  0
  7  8  4  0  0  0  0
  8  9  4  0  0  0  0
  9 10  4  0  0  0  0
 10 11  1  0  0  0  0
 11 12  4  0  0  0  0
 11 15  4  0  0  0  0
 12 13  1  0  0  0  0
 12 68  4  0  0  0  0
 13 14  1  0  0  0  0
 15 16  1  0  0  0  0
 15 67  4  0  0  0  0
 16 17  1  0  0  0  0
 17 18  1  0  0  0  0
 17 19  1  0  0  0  0
 17 20  1  0  0  0  0
 20 21  1  0  0  0  0
 21 22  1  0  0  0  0
 22 23  1  0  0  0  0
 22 66  2  0  0  0  0
 23 24  1  0  0  0  0
 23 65  1  0  0  0  0
 24 25  1  0  0  0  0
 25 26  1  0  0  0  0
 25 63  1  0  0  0  0
 26 27  1  0  0  0  0
 26 62  2  0  0  0  0
 27 28  1  0  0  0  0
 27 55  1  0  0  0  0
 28 29  1  0  0  0  0
 29 30  1  0  0  0  0
 29 54  2  0  0  0  0
 30 31  1  0  0  0  0
 30 34  1  0  0  0  0
 31 32  1  0  0  0  0
 31 33  1  0  0  0  0
 34 35  1  0  0  0  0
 34 53  1  0  0  0  0
 35 36  1  0  0  0  0
 35 52  2  0  0  0  0
 36 37  1  0  0  0  0
 36 51  1  0  0  0  0
 36 73  1  0  0  0  0
 37 38  1  0  0  0  0
 38 39  1  0  0  0  0
 39 40  1  0  0  0  0
 39 50  1  0  0  0  0
 40 41  1  0  0  0  0
 40 49  2  0  0  0  0
 41 42  1  0  0  0  0
 42 43  1  0  0  0  0
 43 44  1  0  0  0  0
 43 47  1  0  0  0  0
 43 48  1  0  0  0  0
 44 45  1  0  0  0  0
 44 46  1  0  0  0  0
 50 51  1  0  0  0  0
 55 56  1  0  0  0  0
 56 57  1  0  0  0  0
 56 61  1  0  0  0  0
 57 58  1  0  0  0  0
 58 59  1  0  0  0  0
 58 71  1  0  0  0  0
 59 60  1  0  0  0  0
 60 61  1  0  0  0  0
 63 64  1  0  0  0  0
 64 65  1  0  0  0  0
 67 68  4  0  0  0  0
 67 72  4  0  0  0  0
 68 69  4  0  0  0  0
 69 70  4  0  0  0  0
 70 71  4  0  0  0  0
 71 72  4  0  0  0  0
M  END
$$$$
