mol_ETKDG3_166
  PyMOL3.1          3D                             0

 73 79  0  0  0  0  0  0  0  0999 V2000
   -2.3520    1.2823   -3.6343 C   0  0  0  0  0  0  0  0  0  0  0  0
   -1.7211    2.1029   -2.5970 C   0  0  0  0  0  0  0  0  0  0  0  0
   -0.3891    1.7801   -2.2684 O   0  0  0  0  0  0  0  0  0  0  0  0
   -0.1459    0.5614   -1.6214 C   0  0  0  0  0  0  0  0  0  0  0  0
   -1.7361    3.5269   -2.9308 C   0  0  0  0  0  0  0  0  0  0  0  0
   -0.8381    3.9502   -3.7949 N   0  0  0  0  0  0  0  0  0  0  0  0
   -0.7982    5.2312   -4.1845 C   0  0  0  0  0  0  0  0  0  0  0  0
   -1.7016    6.1705   -3.6938 C   0  0  0  0  0  0  0  0  0  0  0  0
   -2.6676    5.7439   -2.7879 C   0  0  0  0  0  0  0  0  0  0  0  0
   -2.6695    4.4063   -2.3950 C   0  0  0  0  0  0  0  0  0  0  0  0
   -3.6457    3.9922   -1.4254 C   0  0  0  0  0  0  0  0  0  0  0  0
   -4.9633    3.8644   -1.6891 N   0  0  0  0  0  0  0  0  0  0  0  0
   -5.6529    4.0690   -2.9912 C   0  0  0  0  0  0  0  0  0  0  0  0
   -6.4025    5.3213   -3.0334 C   0  0  0  0  0  0  0  0  0  0  0  0
   -3.3767    3.6100   -0.1065 C   0  0  0  0  0  0  0  0  0  0  0  0
   -2.0734    3.4764    0.6037 C   0  0  0  0  0  0  0  0  0  0  0  0
   -1.5683    4.7958    1.2767 C   0  0  0  0  0  0  0  0  0  0  0  0
   -1.3096    5.9175    0.3081 C   0  0  0  0  0  0  0  0  0  0  0  0
   -0.2316    4.5235    1.8944 C   0  0  0  0  0  0  0  0  0  0  0  0
   -2.5851    5.2349    2.2723 C   0  0  0  0  0  0  0  0  0  0  0  0
   -2.4434    4.5083    3.5803 O   0  0  0  0  0  0  0  0  0  0  0  0
   -2.2454    5.1527    4.8205 C   0  0  0  0  0  0  0  0  0  0  0  0
   -2.1093    4.3053    6.0506 C   0  0  0  0  0  0  0  0  0  0  0  0
   -1.8038    2.9569    5.7057 N   0  0  0  0  0  0  0  0  0  0  0  0
   -1.6181    2.0745    6.7602 N   0  0  0  0  0  0  0  0  0  0  0  0
   -2.3402    0.9286    6.8593 C   0  0  0  0  0  0  0  0  0  0  0  0
   -3.3439    0.6393    5.8035 C   0  0  0  0  0  0  0  0  0  0  0  0
   -3.4142   -0.7591    5.4824 N   0  0  0  0  0  0  0  0  0  0  0  0
   -2.9084   -1.2570    4.3588 C   0  0  0  0  0  0  0  0  0  0  0  0
   -3.2362   -2.6716    4.0616 C   0  0  0  0  0  0  0  0  0  0  0  0
   -2.1680   -3.7029    4.4304 C   0  0  0  0  0  0  0  0  0  0  0  0
   -1.0493   -3.2452    5.2371 C   0  0  0  0  0  0  0  0  0  0  0  0
   -2.7491   -5.0277    4.7962 C   0  0  0  0  0  0  0  0  0  0  0  0
   -3.5401   -2.7239    2.6455 N   0  0  0  0  0  0  0  0  0  0  0  0
   -4.7876   -2.3620    2.2472 C   0  0  0  0  0  0  0  0  0  0  0  0
   -5.2225   -2.2809    0.8221 C   0  0  0  0  0  0  0  0  0  0  0  0
   -4.6004   -1.0334    0.2541 C   0  0  0  0  0  0  0  0  0  0  0  0
   -4.9650   -0.8518   -1.1522 C   0  0  0  0  0  0  0  0  0  0  0  0
   -6.4186   -0.8936   -1.2952 N   0  0  0  0  0  0  0  0  0  0  0  0
   -7.0574    0.0618   -1.9890 C   0  0  0  0  0  0  0  0  0  0  0  0
   -8.4183    0.2160   -1.8739 C   0  0  0  0  0  0  0  0  0  0  0  0
   -9.5388    0.4259   -1.8977 C   0  0  0  0  0  0  0  0  0  0  0  0
  -10.9273    0.5983   -1.8354 C   0  0  0  0  0  0  0  0  0  0  0  0
  -11.3527    1.3251   -2.9957 N   0  0  0  0  0  0  0  0  0  0  0  0
  -11.3590    0.6370   -4.2342 C   0  0  0  0  0  0  0  0  0  0  0  0
  -11.0875    2.7200   -3.0566 C   0  0  0  0  0  0  0  0  0  0  0  0
  -11.5930   -0.7635   -1.7767 C   0  0  0  0  0  0  0  0  0  0  0  0
  -11.3088    1.3290   -0.5755 C   0  0  0  0  0  0  0  0  0  0  0  0
   -6.4306    0.8225   -2.7118 O   0  0  0  0  0  0  0  0  0  0  0  0
   -7.1216   -1.9712   -0.6785 C   0  0  0  0  0  0  0  0  0  0  0  0
   -6.7420   -2.1834    0.6994 C   0  0  0  0  0  0  0  0  0  0  0  0
   -5.6048   -2.0500    3.1309 O   0  0  0  0  0  0  0  0  0  0  0  0
   -2.4652   -3.0502    1.6959 C   0  0  0  0  0  0  0  0  0  0  0  0
   -2.3163   -0.5345    3.5769 O   0  0  0  0  0  0  0  0  0  0  0  0
   -4.7726    1.1182    6.2636 C   0  0  0  0  0  0  0  0  0  0  0  0
   -5.8375    0.9380    5.1629 C   0  0  0  0  0  0  0  0  0  0  0  0
   -5.6540    2.0553    4.2189 C   0  0  0  0  0  0  0  0  0  0  0  0
   -6.6332    2.0225    3.1834 N   0  0  0  0  0  0  0  0  0  0  0  0
   -8.0220    1.9278    3.6383 C   0  0  0  0  0  0  0  0  0  0  0  0
   -8.1670    0.8644    4.7266 C   0  0  0  0  0  0  0  0  0  0  0  0
   -7.1472    1.0112    5.7664 O   0  0  0  0  0  0  0  0  0  0  0  0
   -2.2157    0.1559    7.8126 O   0  0  0  0  0  0  0  0  0  0  0  0
   -0.5646    2.4267    7.7002 C   0  0  0  0  0  0  0  0  0  0  0  0
   -0.7842    3.8767    8.1643 C   0  0  0  0  0  0  0  0  0  0  0  0
   -0.9988    4.8282    6.9958 C   0  0  0  0  0  0  0  0  0  0  0  0
   -2.1831    6.3951    4.9948 O   0  0  0  0  0  0  0  0  0  0  0  0
   -4.6359    3.2890    0.4185 C   0  0  0  0  0  0  0  0  0  0  0  0
   -5.5750    3.4611   -0.5772 C   0  0  0  0  0  0  0  0  0  0  0  0
   -6.9443    3.1779   -0.3023 C   0  0  0  0  0  0  0  0  0  0  0  0
   -7.2545    2.6870    0.9554 C   0  0  0  0  0  0  0  0  0  0  0  0
   -6.2930    2.5150    1.9334 C   0  0  0  0  0  0  0  0  0  0  0  0
   -4.9528    2.8167    1.6743 C   0  0  0  0  0  0  0  0  0  0  0  0
   -4.8545   -3.4156    0.1330 F   0  0  0  0  0  0  0  0  0  0  0  0
  1  2  1  0  0  0  0
  2  3  1  0  0  0  0
  2  5  1  0  0  0  0
  3  4  1  0  0  0  0
  5  6  4  0  0  0  0
  5 10  4  0  0  0  0
  6  7  4  0  0  0  0
  7  8  4  0  0  0  0
  8  9  4  0  0  0  0
  9 10  4  0  0  0  0
 10 11  1  0  0  0  0
 11 12  4  0  0  0  0
 11 15  4  0  0  0  0
 12 13  1  0  0  0  0
 12 68  4  0  0  0  0
 13 14  1  0  0  0  0
 15 16  1  0  0  0  0
 15 67  4  0  0  0  0
 16 17  1  0  0  0  0
 17 18  1  0  0  0  0
 17 19  1  0  0  0  0
 17 20  1  0  0  0  0
 20 21  1  0  0  0  0
 21 22  1  0  0  0  0
 22 23  1  0  0  0  0
 22 66  2  0  0  0  0
 23 24  1  0  0  0  0
 23 65  1  0  0  0  0
 24 25  1  0  0  0  0
 25 26  1  0  0  0  0
 25 63  1  0  0  0  0
 26 27  1  0  0  0  0
 26 62  2  0  0  0  0
 27 28  1  0  0  0  0
 27 55  1  0  0  0  0
 28 29  1  0  0  0  0
 29 30  1  0  0  0  0
 29 54  2  0  0  0  0
 30 31  1  0  0  0  0
 30 34  1  0  0  0  0
 31 32  1  0  0  0  0
 31 33  1  0  0  0  0
 34 35  1  0  0  0  0
 34 53  1  0  0  0  0
 35 36  1  0  0  0  0
 35 52  2  0  0  0  0
 36 37  1  0  0  0  0
 36 51  1  0  0  0  0
 36 73  1  0  0  0  0
 37 38  1  0  0  0  0
 38 39  1  0  0  0  0
 39 40  1  0  0  0  0
 39 50  1  0  0  0  0
 40 41  1  0  0  0  0
 40 49  2  0  0  0  0
 41 42  1  0  0  0  0
 42 43  1  0  0  0  0
 43 44  1  0  0  0  0
 43 47  1  0  0  0  0
 43 48  1  0  0  0  0
 44 45  1  0  0  0  0
 44 46  1  0  0  0  0
 50 51  1  0  0  0  0
 55 56  1  0  0  0  0
 56 57  1  0  0  0  0
 56 61  1  0  0  0  0
 57 58  1  0  0  0  0
 58 59  1  0  0  0  0
 58 71  1  0  0  0  0
 59 60  1  0  0  0  0
 60 61  1  0  0  0  0
 63 64  1  0  0  0  0
 64 65  1  0  0  0  0
 67 68  4  0  0  0  0
 67 72  4  0  0  0  0
 68 69  4  0  0  0  0
 69 70  4  0  0  0  0
 70 71  4  0  0  0  0
 71 72  4  0  0  0  0
M  END
$$$$
