mol_ETKDG5_262
  PyMOL3.1          3D                             0

 73 79  0  0  0  0  0  0  0  0999 V2000
    2.7332    1.4601   -5.2756 C   0  0  0  0  0  0  0  0  0  0  0  0
    2.0877    0.1882   -4.9140 C   0  0  0  0  0  0  0  0  0  0  0  0
    1.0831   -0.2626   -5.8013 O   0  0  0  0  0  0  0  0  0  0  0  0
   -0.0996    0.4936   -5.8700 C   0  0  0  0  0  0  0  0  0  0  0  0
    3.0515   -0.9119   -4.7319 C   0  0  0  0  0  0  0  0  0  0  0  0
    3.4877   -1.5412   -5.8082 N   0  0  0  0  0  0  0  0  0  0  0  0
    4.3956   -2.5336   -5.7261 C   0  0  0  0  0  0  0  0  0  0  0  0
    4.9308   -2.9325   -4.4978 C   0  0  0  0  0  0  0  0  0  0  0  0
    4.4963   -2.2704   -3.3479 C   0  0  0  0  0  0  0  0  0  0  0  0
    3.5337   -1.2612   -3.4773 C   0  0  0  0  0  0  0  0  0  0  0  0
    3.0671   -0.6180   -2.2788 C   0  0  0  0  0  0  0  0  0  0  0  0
    3.7468    0.3763   -1.6600 N   0  0  0  0  0  0  0  0  0  0  0  0
    5.0306    1.0273   -2.0971 C   0  0  0  0  0  0  0  0  0  0  0  0
    6.1790    0.6373   -1.2723 C   0  0  0  0  0  0  0  0  0  0  0  0
    1.8387   -0.8752   -1.6248 C   0  0  0  0  0  0  0  0  0  0  0  0
    0.6775   -1.7583   -1.9980 C   0  0  0  0  0  0  0  0  0  0  0  0
    0.7535   -3.2644   -1.5250 C   0  0  0  0  0  0  0  0  0  0  0  0
   -0.5171   -3.9466   -2.0038 C   0  0  0  0  0  0  0  0  0  0  0  0
    1.8489   -4.0222   -2.1828 C   0  0  0  0  0  0  0  0  0  0  0  0
    0.8856   -3.3909   -0.0348 C   0  0  0  0  0  0  0  0  0  0  0  0
   -0.3852   -3.4524    0.7610 O   0  0  0  0  0  0  0  0  0  0  0  0
   -0.5631   -4.2531    1.9177 C   0  0  0  0  0  0  0  0  0  0  0  0
   -1.8761   -4.1322    2.6592 C   0  0  0  0  0  0  0  0  0  0  0  0
   -2.7984   -3.3641    1.8897 N   0  0  0  0  0  0  0  0  0  0  0  0
   -4.0763   -3.1658    2.3917 N   0  0  0  0  0  0  0  0  0  0  0  0
   -4.5963   -1.9076    2.5181 C   0  0  0  0  0  0  0  0  0  0  0  0
   -3.7343   -0.7383    2.1493 C   0  0  0  0  0  0  0  0  0  0  0  0
   -4.4803    0.3509    1.5581 N   0  0  0  0  0  0  0  0  0  0  0  0
   -4.4706    0.6203    0.2461 C   0  0  0  0  0  0  0  0  0  0  0  0
   -5.1034    1.9080   -0.1591 C   0  0  0  0  0  0  0  0  0  0  0  0
   -6.5705    1.7667   -0.6930 C   0  0  0  0  0  0  0  0  0  0  0  0
   -7.2261    3.0963   -0.8977 C   0  0  0  0  0  0  0  0  0  0  0  0
   -7.4068    0.8436    0.1445 C   0  0  0  0  0  0  0  0  0  0  0  0
   -4.1993    2.5176   -1.1363 N   0  0  0  0  0  0  0  0  0  0  0  0
   -3.1326    3.2601   -0.6756 C   0  0  0  0  0  0  0  0  0  0  0  0
   -2.0790    3.8930   -1.5490 C   0  0  0  0  0  0  0  0  0  0  0  0
   -1.3439    5.0488   -0.8683 C   0  0  0  0  0  0  0  0  0  0  0  0
   -0.2365    5.5616   -1.7460 C   0  0  0  0  0  0  0  0  0  0  0  0
    0.6295    4.4492   -2.1686 N   0  0  0  0  0  0  0  0  0  0  0  0
    1.9792    4.4342   -1.9804 C   0  0  0  0  0  0  0  0  0  0  0  0
    2.5985    5.2916   -1.0997 C   0  0  0  0  0  0  0  0  0  0  0  0
    3.2310    5.9914   -0.4496 C   0  0  0  0  0  0  0  0  0  0  0  0
    3.8440    6.9517    0.3784 C   0  0  0  0  0  0  0  0  0  0  0  0
    4.8716    7.6302   -0.3651 N   0  0  0  0  0  0  0  0  0  0  0  0
    4.4688    8.4640   -1.4429 C   0  0  0  0  0  0  0  0  0  0  0  0
    6.1813    7.1118   -0.4140 C   0  0  0  0  0  0  0  0  0  0  0  0
    4.3960    6.2765    1.6077 C   0  0  0  0  0  0  0  0  0  0  0  0
    2.8096    7.9532    0.8600 C   0  0  0  0  0  0  0  0  0  0  0  0
    2.6831    3.6057   -2.5895 O   0  0  0  0  0  0  0  0  0  0  0  0
   -0.0099    3.3234   -2.7796 C   0  0  0  0  0  0  0  0  0  0  0  0
   -1.0749    2.7939   -1.8790 C   0  0  0  0  0  0  0  0  0  0  0  0
   -3.0182    3.3936    0.5605 O   0  0  0  0  0  0  0  0  0  0  0  0
   -4.3886    2.2046   -2.5671 C   0  0  0  0  0  0  0  0  0  0  0  0
   -3.8621   -0.0980   -0.5283 O   0  0  0  0  0  0  0  0  0  0  0  0
   -3.0143   -0.2061    3.4443 C   0  0  0  0  0  0  0  0  0  0  0  0
   -2.0425    0.9659    3.1920 C   0  0  0  0  0  0  0  0  0  0  0  0
   -0.8068    0.3864    2.6213 C   0  0  0  0  0  0  0  0  0  0  0  0
    0.2102    1.3781    2.4306 N   0  0  0  0  0  0  0  0  0  0  0  0
    0.4934    2.2166    3.6097 C   0  0  0  0  0  0  0  0  0  0  0  0
   -0.8056    2.6985    4.2699 C   0  0  0  0  0  0  0  0  0  0  0  0
   -1.7526    1.5960    4.4621 O   0  0  0  0  0  0  0  0  0  0  0  0
   -5.7300   -1.7098    2.9853 O   0  0  0  0  0  0  0  0  0  0  0  0
   -4.8264   -4.3880    2.7019 C   0  0  0  0  0  0  0  0  0  0  0  0
   -3.9441   -5.3170    3.5715 C   0  0  0  0  0  0  0  0  0  0  0  0
   -2.5355   -5.5072    2.9949 C   0  0  0  0  0  0  0  0  0  0  0  0
    0.2798   -5.0628    2.3668 O   0  0  0  0  0  0  0  0  0  0  0  0
    1.8647   -0.0020   -0.5285 C   0  0  0  0  0  0  0  0  0  0  0  0
    3.0376    0.7472   -0.5908 C   0  0  0  0  0  0  0  0  0  0  0  0
    3.2818    1.7542    0.3960 C   0  0  0  0  0  0  0  0  0  0  0  0
    2.3112    1.9385    1.3773 C   0  0  0  0  0  0  0  0  0  0  0  0
    1.1531    1.1712    1.4264 C   0  0  0  0  0  0  0  0  0  0  0  0
    0.9050    0.1846    0.4521 C   0  0  0  0  0  0  0  0  0  0  0  0
   -2.6294    4.4067   -2.7031 F   0  0  0  0  0  0  0  0  0  0  0  0
  1  2  1  0  0  0  0
  2  3  1  0  0  0  0
  2  5  1  0  0  0  0
  3  4  1  0  0  0  0
  5  6  4  0  0  0  0
  5 10  4  0  0  0  0
  6  7  4  0  0  0  0
  7  8  4  0  0  0  0
  8  9  4  0  0  0  0
  9 10  4  0  0  0  0
 10 11  1  0  0  0  0
 11 12  4  0  0  0  0
 11 15  4  0  0  0  0
 12 13  1  0  0  0  0
 12 68  4  0  0  0  0
 13 14  1  0  0  0  0
 15 16  1  0  0  0  0
 15 67  4  0  0  0  0
 16 17  1  0  0  0  0
 17 18  1  0  0  0  0
 17 19  1  0  0  0  0
 17 20  1  0  0  0  0
 20 21  1  0  0  0  0
 21 22  1  0  0  0  0
 22 23  1  0  0  0  0
 22 66  2  0  0  0  0
 23 24  1  0  0  0  0
 23 65  1  0  0  0  0
 24 25  1  0  0  0  0
 25 26  1  0  0  0  0
 25 63  1  0  0  0  0
 26 27  1  0  0  0  0
 26 62  2  0  0  0  0
 27 28  1  0  0  0  0
 27 55  1  0  0  0  0
 28 29  1  0  0  0  0
 29 30  1  0  0  0  0
 29 54  2  0  0  0  0
 30 31  1  0  0  0  0
 30 34  1  0  0  0  0
 31 32  1  0  0  0  0
 31 33  1  0  0  0  0
 34 35  1  0  0  0  0
 34 53  1  0  0  0  0
 35 36  1  0  0  0  0
 35 52  2  0  0  0  0
 36 37  1  0  0  0  0
 36 51  1  0  0  0  0
 36 73  1  0  0  0  0
 37 38  1  0  0  0  0
 38 39  1  0  0  0  0
 39 40  1  0  0  0  0
 39 50  1  0  0  0  0
 40 41  1  0  0  0  0
 40 49  2  0  0  0  0
 41 42  1  0  0  0  0
 42 43  1  0  0  0  0
 43 44  1  0  0  0  0
 43 47  1  0  0  0  0
 43 48  1  0  0  0  0
 44 45  1  0  0  0  0
 44 46  1  0  0  0  0
 50 51  1  0  0  0  0
 55 56  1  0  0  0  0
 56 57  1  0  0  0  0
 56 61  1  0  0  0  0
 57 58  1  0  0  0  0
 58 59  1  0  0  0  0
 58 71  1  0  0  0  0
 59 60  1  0  0  0  0
 60 61  1  0  0  0  0
 63 64  1  0  0  0  0
 64 65  1  0  0  0  0
 67 68  4  0  0  0  0
 67 72  4  0  0  0  0
 68 69  4  0  0  0  0
 69 70  4  0  0  0  0
 70 71  4  0  0  0  0
 71 72  4  0  0  0  0
M  END
$$$$
