mol_bioactive_49
  PyMOL3.1          3D                             0

 73 79  0  0  0  0  0  0  0  0999 V2000
    4.2909    0.5522   -2.5870 C   0  0  0  0  0  0  0  0  0  0  0  0
    4.8350    1.1080   -1.3245 C   0  0  0  0  0  0  0  0  0  0  0  0
    4.1340    0.6906   -0.1781 O   0  0  0  0  0  0  0  0  0  0  0  0
    4.0365   -0.6938    0.0833 C   0  0  0  0  0  0  0  0  0  0  0  0
    4.8895    2.5672   -1.2505 C   0  0  0  0  0  0  0  0  0  0  0  0
    6.1799    2.8284   -1.3244 N   0  0  0  0  0  0  0  0  0  0  0  0
    6.6502    4.0493   -1.3485 C   0  0  0  0  0  0  0  0  0  0  0  0
    5.8156    5.1341   -1.3161 C   0  0  0  0  0  0  0  0  0  0  0  0
    4.4355    4.9251   -1.2518 C   0  0  0  0  0  0  0  0  0  0  0  0
    3.9609    3.6220   -1.1887 C   0  0  0  0  0  0  0  0  0  0  0  0
    2.5260    3.4446   -1.0610 C   0  0  0  0  0  0  0  0  0  0  0  0
    1.6817    3.4128   -2.1243 N   0  0  0  0  0  0  0  0  0  0  0  0
    2.0308    3.5081   -3.5787 C   0  0  0  0  0  0  0  0  0  0  0  0
    1.7148    4.8064   -4.1701 C   0  0  0  0  0  0  0  0  0  0  0  0
    1.7944    3.2605    0.1552 C   0  0  0  0  0  0  0  0  0  0  0  0
    2.2511    3.0932    1.5755 C   0  0  0  0  0  0  0  0  0  0  0  0
    2.3676    4.3603    2.5115 C   0  0  0  0  0  0  0  0  0  0  0  0
    3.2919    5.4137    1.9565 C   0  0  0  0  0  0  0  0  0  0  0  0
    2.9982    3.8995    3.8047 C   0  0  0  0  0  0  0  0  0  0  0  0
    1.0126    5.0118    2.7988 C   0  0  0  0  0  0  0  0  0  0  0  0
    0.1880    4.4287    3.9191 O   0  0  0  0  0  0  0  0  0  0  0  0
   -0.4870    5.1917    4.9286 C   0  0  0  0  0  0  0  0  0  0  0  0
   -1.3514    4.4616    5.9525 C   0  0  0  0  0  0  0  0  0  0  0  0
   -1.1621    3.0589    5.8392 N   0  0  0  0  0  0  0  0  0  0  0  0
   -1.8549    2.2207    6.6985 N   0  0  0  0  0  0  0  0  0  0  0  0
   -2.6251    1.1982    6.2038 C   0  0  0  0  0  0  0  0  0  0  0  0
   -2.7001    1.0055    4.7083 C   0  0  0  0  0  0  0  0  0  0  0  0
   -2.6452   -0.3976    4.3341 N   0  0  0  0  0  0  0  0  0  0  0  0
   -1.5338   -1.0643    4.0063 C   0  0  0  0  0  0  0  0  0  0  0  0
   -1.7023   -2.4574    3.5117 C   0  0  0  0  0  0  0  0  0  0  0  0
   -1.4669   -3.5798    4.5524 C   0  0  0  0  0  0  0  0  0  0  0  0
   -1.9465   -4.9125    4.1011 C   0  0  0  0  0  0  0  0  0  0  0  0
   -1.8971   -3.2306    5.9330 C   0  0  0  0  0  0  0  0  0  0  0  0
   -0.8701   -2.5975    2.3285 N   0  0  0  0  0  0  0  0  0  0  0  0
   -1.3985   -2.2415    1.1112 C   0  0  0  0  0  0  0  0  0  0  0  0
   -0.6210   -2.2268   -0.1745 C   0  0  0  0  0  0  0  0  0  0  0  0
   -1.3427   -2.8232   -1.3500 C   0  0  0  0  0  0  0  0  0  0  0  0
   -0.6082   -2.6507   -2.5722 C   0  0  0  0  0  0  0  0  0  0  0  0
    0.1863   -1.4300   -2.7086 N   0  0  0  0  0  0  0  0  0  0  0  0
    0.9045   -1.1572   -3.8005 C   0  0  0  0  0  0  0  0  0  0  0  0
    1.3005   -2.2099   -4.6017 C   0  0  0  0  0  0  0  0  0  0  0  0
    1.7323   -3.0748   -5.2406 C   0  0  0  0  0  0  0  0  0  0  0  0
    2.1398   -4.3159   -5.8161 C   0  0  0  0  0  0  0  0  0  0  0  0
    2.2197   -5.2887   -4.7676 N   0  0  0  0  0  0  0  0  0  0  0  0
    3.3923   -5.4055   -4.0201 C   0  0  0  0  0  0  0  0  0  0  0  0
    1.0580   -5.9139   -4.3148 C   0  0  0  0  0  0  0  0  0  0  0  0
    1.1381   -4.7534   -6.8572 C   0  0  0  0  0  0  0  0  0  0  0  0
    3.4739   -4.2032   -6.4912 C   0  0  0  0  0  0  0  0  0  0  0  0
    1.2808   -0.0030   -4.0294 O   0  0  0  0  0  0  0  0  0  0  0  0
    0.3098   -0.5471   -1.6463 C   0  0  0  0  0  0  0  0  0  0  0  0
   -0.2324   -0.7926   -0.4205 C   0  0  0  0  0  0  0  0  0  0  0  0
   -2.5818   -1.8641    1.0757 O   0  0  0  0  0  0  0  0  0  0  0  0
    0.5244   -2.9911    2.5166 C   0  0  0  0  0  0  0  0  0  0  0  0
   -0.4669   -0.4864    4.0050 O   0  0  0  0  0  0  0  0  0  0  0  0
   -4.0245    1.6577    4.1589 C   0  0  0  0  0  0  0  0  0  0  0  0
   -4.1999    2.2104    2.7141 C   0  0  0  0  0  0  0  0  0  0  0  0
   -2.9556    2.2314    1.9494 C   0  0  0  0  0  0  0  0  0  0  0  0
   -3.0655    2.4990    0.5464 N   0  0  0  0  0  0  0  0  0  0  0  0
   -4.3470    2.4575   -0.0806 C   0  0  0  0  0  0  0  0  0  0  0  0
   -5.4889    1.9530    0.7195 C   0  0  0  0  0  0  0  0  0  0  0  0
   -5.2235    1.4432    2.0408 O   0  0  0  0  0  0  0  0  0  0  0  0
   -3.2949    0.4679    6.9467 O   0  0  0  0  0  0  0  0  0  0  0  0
   -1.6667    2.4839    8.1213 C   0  0  0  0  0  0  0  0  0  0  0  0
   -1.8453    3.9849    8.4048 C   0  0  0  0  0  0  0  0  0  0  0  0
   -1.0841    4.8772    7.4205 C   0  0  0  0  0  0  0  0  0  0  0  0
   -0.4215    6.4168    5.0131 O   0  0  0  0  0  0  0  0  0  0  0  0
    0.4627    3.1338   -0.2763 C   0  0  0  0  0  0  0  0  0  0  0  0
    0.4364    3.2358   -1.6661 C   0  0  0  0  0  0  0  0  0  0  0  0
   -0.8074    3.0997   -2.3505 C   0  0  0  0  0  0  0  0  0  0  0  0
   -1.9463    2.8733   -1.5825 C   0  0  0  0  0  0  0  0  0  0  0  0
   -1.9073    2.7596   -0.1901 C   0  0  0  0  0  0  0  0  0  0  0  0
   -0.6791    2.9092    0.4762 C   0  0  0  0  0  0  0  0  0  0  0  0
    0.5221   -2.9464   -0.1270 F   0  0  0  0  0  0  0  0  0  0  0  0
  1  2  1  0  0  0  0
  2  3  1  0  0  0  0
  2  5  1  0  0  0  0
  3  4  1  0  0  0  0
  5  6  4  0  0  0  0
  5 10  4  0  0  0  0
  6  7  4  0  0  0  0
  7  8  4  0  0  0  0
  8  9  4  0  0  0  0
  9 10  4  0  0  0  0
 10 11  1  0  0  0  0
 11 12  4  0  0  0  0
 11 15  4  0  0  0  0
 12 13  1  0  0  0  0
 12 68  4  0  0  0  0
 13 14  1  0  0  0  0
 15 16  1  0  0  0  0
 15 67  4  0  0  0  0
 16 17  1  0  0  0  0
 17 18  1  0  0  0  0
 17 19  1  0  0  0  0
 17 20  1  0  0  0  0
 20 21  1  0  0  0  0
 21 22  1  0  0  0  0
 22 23  1  0  0  0  0
 22 66  2  0  0  0  0
 23 24  1  0  0  0  0
 23 65  1  0  0  0  0
 24 25  1  0  0  0  0
 25 26  1  0  0  0  0
 25 63  1  0  0  0  0
 26 27  1  0  0  0  0
 26 62  2  0  0  0  0
 27 28  1  0  0  0  0
 27 55  1  0  0  0  0
 28 29  1  0  0  0  0
 29 30  1  0  0  0  0
 29 54  2  0  0  0  0
 30 31  1  0  0  0  0
 30 34  1  0  0  0  0
 31 32  1  0  0  0  0
 31 33  1  0  0  0  0
 34 35  1  0  0  0  0
 34 53  1  0  0  0  0
 35 36  1  0  0  0  0
 35 52  2  0  0  0  0
 36 37  1  0  0  0  0
 36 51  1  0  0  0  0
 36 73  1  0  0  0  0
 37 38  1  0  0  0  0
 38 39  1  0  0  0  0
 39 40  1  0  0  0  0
 39 50  1  0  0  0  0
 40 41  1  0  0  0  0
 40 49  2  0  0  0  0
 41 42  1  0  0  0  0
 42 43  1  0  0  0  0
 43 44  1  0  0  0  0
 43 47  1  0  0  0  0
 43 48  1  0  0  0  0
 44 45  1  0  0  0  0
 44 46  1  0  0  0  0
 50 51  1  0  0  0  0
 55 56  1  0  0  0  0
 56 57  1  0  0  0  0
 56 61  1  0  0  0  0
 57 58  1  0  0  0  0
 58 59  1  0  0  0  0
 58 71  1  0  0  0  0
 59 60  1  0  0  0  0
 60 61  1  0  0  0  0
 63 64  1  0  0  0  0
 64 65  1  0  0  0  0
 67 68  4  0  0  0  0
 67 72  4  0  0  0  0
 68 69  4  0  0  0  0
 69 70  4  0  0  0  0
 70 71  4  0  0  0  0
 71 72  4  0  0  0  0
M  END
$$$$
