mol_ETKDG3_152
  PyMOL3.1          3D                             0

 73 79  0  0  0  0  0  0  0  0999 V2000
    7.2209    0.1249    2.5101 C   0  0  0  0  0  0  0  0  0  0  0  0
    6.9083   -0.4405    1.1843 C   0  0  0  0  0  0  0  0  0  0  0  0
    6.9291   -1.8488    1.0978 O   0  0  0  0  0  0  0  0  0  0  0  0
    5.8643   -2.5431    1.6889 C   0  0  0  0  0  0  0  0  0  0  0  0
    7.7890    0.0692    0.1264 C   0  0  0  0  0  0  0  0  0  0  0  0
    8.9835   -0.4749   -0.0013 N   0  0  0  0  0  0  0  0  0  0  0  0
    9.8645   -0.0180   -0.9130 C   0  0  0  0  0  0  0  0  0  0  0  0
    9.5591    1.0563   -1.7512 C   0  0  0  0  0  0  0  0  0  0  0  0
    8.3032    1.6593   -1.6188 C   0  0  0  0  0  0  0  0  0  0  0  0
    7.4069    1.1344   -0.6819 C   0  0  0  0  0  0  0  0  0  0  0  0
    6.0916    1.7118   -0.5726 C   0  0  0  0  0  0  0  0  0  0  0  0
    5.8302    2.8604    0.0886 N   0  0  0  0  0  0  0  0  0  0  0  0
    6.7978    3.7444    0.8124 C   0  0  0  0  0  0  0  0  0  0  0  0
    7.0744    4.9860    0.0777 C   0  0  0  0  0  0  0  0  0  0  0  0
    4.8946    1.1265   -1.0444 C   0  0  0  0  0  0  0  0  0  0  0  0
    4.6515   -0.1832   -1.7392 C   0  0  0  0  0  0  0  0  0  0  0  0
    4.6900   -0.1079   -3.3177 C   0  0  0  0  0  0  0  0  0  0  0  0
    6.0093    0.3957   -3.8579 C   0  0  0  0  0  0  0  0  0  0  0  0
    4.5671   -1.5080   -3.8533 C   0  0  0  0  0  0  0  0  0  0  0  0
    3.5818    0.7872   -3.8187 C   0  0  0  0  0  0  0  0  0  0  0  0
    2.2418    0.0927   -3.8700 O   0  0  0  0  0  0  0  0  0  0  0  0
    1.4778   -0.0762   -5.0465 C   0  0  0  0  0  0  0  0  0  0  0  0
    0.1352   -0.7591   -4.9578 C   0  0  0  0  0  0  0  0  0  0  0  0
    0.0227   -1.4879   -3.7295 N   0  0  0  0  0  0  0  0  0  0  0  0
   -1.1448   -2.2142   -3.5320 N   0  0  0  0  0  0  0  0  0  0  0  0
   -1.8936   -2.0560   -2.4065 C   0  0  0  0  0  0  0  0  0  0  0  0
   -1.4148   -1.1105   -1.3521 C   0  0  0  0  0  0  0  0  0  0  0  0
   -1.6846   -1.6098   -0.0214 N   0  0  0  0  0  0  0  0  0  0  0  0
   -0.7352   -2.1317    0.7620 C   0  0  0  0  0  0  0  0  0  0  0  0
   -1.1356   -2.4792    2.1534 C   0  0  0  0  0  0  0  0  0  0  0  0
   -1.4170   -3.9876    2.3904 C   0  0  0  0  0  0  0  0  0  0  0  0
   -2.1266   -4.2671    3.6653 C   0  0  0  0  0  0  0  0  0  0  0  0
   -1.9879   -4.7014    1.2176 C   0  0  0  0  0  0  0  0  0  0  0  0
   -0.0797   -1.9749    3.0226 N   0  0  0  0  0  0  0  0  0  0  0  0
   -0.1092   -0.6538    3.3875 C   0  0  0  0  0  0  0  0  0  0  0  0
    0.9554    0.0210    4.1986 C   0  0  0  0  0  0  0  0  0  0  0  0
    0.5272    1.3200    4.8680 C   0  0  0  0  0  0  0  0  0  0  0  0
    1.6809    1.9524    5.5513 C   0  0  0  0  0  0  0  0  0  0  0  0
    2.8637    2.0404    4.6673 N   0  0  0  0  0  0  0  0  0  0  0  0
    3.6513    3.1318    4.5524 C   0  0  0  0  0  0  0  0  0  0  0  0
    3.4207    4.2683    5.2753 C   0  0  0  0  0  0  0  0  0  0  0  0
    3.4278    5.2413    5.8767 C   0  0  0  0  0  0  0  0  0  0  0  0
    3.2943    6.3813    6.6778 C   0  0  0  0  0  0  0  0  0  0  0  0
    4.5830    6.9506    6.9207 N   0  0  0  0  0  0  0  0  0  0  0  0
    5.1509    7.8227    5.9738 C   0  0  0  0  0  0  0  0  0  0  0  0
    5.4523    6.3639    7.8618 C   0  0  0  0  0  0  0  0  0  0  0  0
    2.6313    6.0017    7.9837 C   0  0  0  0  0  0  0  0  0  0  0  0
    2.3912    7.3920    6.0023 C   0  0  0  0  0  0  0  0  0  0  0  0
    4.6232    3.1114    3.7722 O   0  0  0  0  0  0  0  0  0  0  0  0
    3.2136    0.9010    3.9081 C   0  0  0  0  0  0  0  0  0  0  0  0
    2.0772    0.3187    3.2266 C   0  0  0  0  0  0  0  0  0  0  0  0
   -1.0610    0.0393    2.9765 O   0  0  0  0  0  0  0  0  0  0  0  0
    1.0442   -2.8687    3.3615 C   0  0  0  0  0  0  0  0  0  0  0  0
    0.4207   -2.1944    0.3685 O   0  0  0  0  0  0  0  0  0  0  0  0
   -2.0988    0.2935   -1.5355 C   0  0  0  0  0  0  0  0  0  0  0  0
   -1.5499    1.3855   -0.5887 C   0  0  0  0  0  0  0  0  0  0  0  0
   -0.2136    1.7663   -1.1091 C   0  0  0  0  0  0  0  0  0  0  0  0
    0.3561    2.8651   -0.3775 N   0  0  0  0  0  0  0  0  0  0  0  0
   -0.5141    4.0310   -0.2193 C   0  0  0  0  0  0  0  0  0  0  0  0
   -1.9341    3.6102    0.1807 C   0  0  0  0  0  0  0  0  0  0  0  0
   -2.4405    2.5235   -0.6595 O   0  0  0  0  0  0  0  0  0  0  0  0
   -2.9754   -2.6447   -2.2504 O   0  0  0  0  0  0  0  0  0  0  0  0
   -1.4709   -3.1961   -4.5645 C   0  0  0  0  0  0  0  0  0  0  0  0
   -1.3918   -2.5275   -5.9453 C   0  0  0  0  0  0  0  0  0  0  0  0
   -0.0921   -1.7443   -6.1355 C   0  0  0  0  0  0  0  0  0  0  0  0
    1.8243    0.3110   -6.1892 O   0  0  0  0  0  0  0  0  0  0  0  0
    3.9032    2.0309   -0.6434 C   0  0  0  0  0  0  0  0  0  0  0  0
    4.5124    3.0721    0.0419 C   0  0  0  0  0  0  0  0  0  0  0  0
    3.7047    4.1167    0.5974 C   0  0  0  0  0  0  0  0  0  0  0  0
    2.3274    4.0152    0.4342 C   0  0  0  0  0  0  0  0  0  0  0  0
    1.7382    2.9535   -0.2494 C   0  0  0  0  0  0  0  0  0  0  0  0
    2.5319    1.9400   -0.7992 C   0  0  0  0  0  0  0  0  0  0  0  0
    1.3871   -0.7928    5.2228 F   0  0  0  0  0  0  0  0  0  0  0  0
  1  2  1  0  0  0  0
  2  3  1  0  0  0  0
  2  5  1  0  0  0  0
  3  4  1  0  0  0  0
  5  6  4  0  0  0  0
  5 10  4  0  0  0  0
  6  7  4  0  0  0  0
  7  8  4  0  0  0  0
  8  9  4  0  0  0  0
  9 10  4  0  0  0  0
 10 11  1  0  0  0  0
 11 12  4  0  0  0  0
 11 15  4  0  0  0  0
 12 13  1  0  0  0  0
 12 68  4  0  0  0  0
 13 14  1  0  0  0  0
 15 16  1  0  0  0  0
 15 67  4  0  0  0  0
 16 17  1  0  0  0  0
 17 18  1  0  0  0  0
 17 19  1  0  0  0  0
 17 20  1  0  0  0  0
 20 21  1  0  0  0  0
 21 22  1  0  0  0  0
 22 23  1  0  0  0  0
 22 66  2  0  0  0  0
 23 24  1  0  0  0  0
 23 65  1  0  0  0  0
 24 25  1  0  0  0  0
 25 26  1  0  0  0  0
 25 63  1  0  0  0  0
 26 27  1  0  0  0  0
 26 62  2  0  0  0  0
 27 28  1  0  0  0  0
 27 55  1  0  0  0  0
 28 29  1  0  0  0  0
 29 30  1  0  0  0  0
 29 54  2  0  0  0  0
 30 31  1  0  0  0  0
 30 34  1  0  0  0  0
 31 32  1  0  0  0  0
 31 33  1  0  0  0  0
 34 35  1  0  0  0  0
 34 53  1  0  0  0  0
 35 36  1  0  0  0  0
 35 52  2  0  0  0  0
 36 37  1  0  0  0  0
 36 51  1  0  0  0  0
 36 73  1  0  0  0  0
 37 38  1  0  0  0  0
 38 39  1  0  0  0  0
 39 40  1  0  0  0  0
 39 50  1  0  0  0  0
 40 41  1  0  0  0  0
 40 49  2  0  0  0  0
 41 42  1  0  0  0  0
 42 43  1  0  0  0  0
 43 44  1  0  0  0  0
 43 47  1  0  0  0  0
 43 48  1  0  0  0  0
 44 45  1  0  0  0  0
 44 46  1  0  0  0  0
 50 51  1  0  0  0  0
 55 56  1  0  0  0  0
 56 57  1  0  0  0  0
 56 61  1  0  0  0  0
 57 58  1  0  0  0  0
 58 59  1  0  0  0  0
 58 71  1  0  0  0  0
 59 60  1  0  0  0  0
 60 61  1  0  0  0  0
 63 64  1  0  0  0  0
 64 65  1  0  0  0  0
 67 68  4  0  0  0  0
 67 72  4  0  0  0  0
 68 69  4  0  0  0  0
 69 70  4  0  0  0  0
 70 71  4  0  0  0  0
 71 72  4  0  0  0  0
M  END
$$$$
