mol_ETKDG2_142
  PyMOL3.1          3D                             0

 73 79  0  0  0  0  0  0  0  0999 V2000
    1.3581    0.3678   -4.6761 C   0  0  0  0  0  0  0  0  0  0  0  0
    0.4077    1.0272   -3.7579 C   0  0  0  0  0  0  0  0  0  0  0  0
    0.8974    2.1823   -3.0934 O   0  0  0  0  0  0  0  0  0  0  0  0
    1.8917    2.0097   -2.1178 C   0  0  0  0  0  0  0  0  0  0  0  0
   -0.8586    1.4027   -4.4119 C   0  0  0  0  0  0  0  0  0  0  0  0
   -0.8814    2.5197   -5.1212 N   0  0  0  0  0  0  0  0  0  0  0  0
   -1.9902    2.9114   -5.7887 C   0  0  0  0  0  0  0  0  0  0  0  0
   -3.1615    2.1503   -5.7675 C   0  0  0  0  0  0  0  0  0  0  0  0
   -3.1579    0.9545   -5.0322 C   0  0  0  0  0  0  0  0  0  0  0  0
   -1.9938    0.5953   -4.3277 C   0  0  0  0  0  0  0  0  0  0  0  0
   -2.0051   -0.6265   -3.5366 C   0  0  0  0  0  0  0  0  0  0  0  0
   -1.8773   -1.8688   -4.0685 N   0  0  0  0  0  0  0  0  0  0  0  0
   -1.6905   -2.2255   -5.5137 C   0  0  0  0  0  0  0  0  0  0  0  0
   -2.8624   -2.8361   -6.1275 C   0  0  0  0  0  0  0  0  0  0  0  0
   -2.0522   -0.6986   -2.1194 C   0  0  0  0  0  0  0  0  0  0  0  0
   -2.1053    0.3966   -1.0857 C   0  0  0  0  0  0  0  0  0  0  0  0
   -3.5749    0.8766   -0.7074 C   0  0  0  0  0  0  0  0  0  0  0  0
   -3.4664    1.8735    0.4218 C   0  0  0  0  0  0  0  0  0  0  0  0
   -4.2183    1.6561   -1.8124 C   0  0  0  0  0  0  0  0  0  0  0  0
   -4.4472   -0.2994   -0.3182 C   0  0  0  0  0  0  0  0  0  0  0  0
   -4.4481   -0.6601    1.1507 O   0  0  0  0  0  0  0  0  0  0  0  0
   -5.6319   -0.7892    1.9430 C   0  0  0  0  0  0  0  0  0  0  0  0
   -5.5049   -1.2259    3.3997 C   0  0  0  0  0  0  0  0  0  0  0  0
   -4.1799   -0.9769    3.8991 N   0  0  0  0  0  0  0  0  0  0  0  0
   -3.9231   -1.2633    5.2433 N   0  0  0  0  0  0  0  0  0  0  0  0
   -2.8666   -2.0649    5.6132 C   0  0  0  0  0  0  0  0  0  0  0  0
   -1.9975   -2.6404    4.5398 C   0  0  0  0  0  0  0  0  0  0  0  0
   -0.5896   -2.6850    4.8920 N   0  0  0  0  0  0  0  0  0  0  0  0
    0.3336   -1.8578    4.3573 C   0  0  0  0  0  0  0  0  0  0  0  0
    1.7650   -2.1885    4.6475 C   0  0  0  0  0  0  0  0  0  0  0  0
    2.4088   -1.2793    5.7480 C   0  0  0  0  0  0  0  0  0  0  0  0
    3.7101   -1.8111    6.2538 C   0  0  0  0  0  0  0  0  0  0  0  0
    1.4652   -0.9014    6.8433 C   0  0  0  0  0  0  0  0  0  0  0  0
    2.4581   -2.1082    3.3403 N   0  0  0  0  0  0  0  0  0  0  0  0
    2.3654   -3.1832    2.4717 C   0  0  0  0  0  0  0  0  0  0  0  0
    2.9097   -3.2147    1.0536 C   0  0  0  0  0  0  0  0  0  0  0  0
    2.0173   -2.3275    0.2049 C   0  0  0  0  0  0  0  0  0  0  0  0
    2.4646   -2.2950   -1.2290 C   0  0  0  0  0  0  0  0  0  0  0  0
    2.5328   -3.6670   -1.7614 N   0  0  0  0  0  0  0  0  0  0  0  0
    1.9128   -4.0112   -2.9457 C   0  0  0  0  0  0  0  0  0  0  0  0
    1.6666   -5.3427   -3.2742 C   0  0  0  0  0  0  0  0  0  0  0  0
    1.4176   -6.4266   -3.6735 C   0  0  0  0  0  0  0  0  0  0  0  0
    1.1600   -7.7731   -4.0153 C   0  0  0  0  0  0  0  0  0  0  0  0
    1.0541   -8.0008   -5.4265 N   0  0  0  0  0  0  0  0  0  0  0  0
    0.7484   -6.9543   -6.3005 C   0  0  0  0  0  0  0  0  0  0  0  0
    1.0240   -9.2945   -5.9650 C   0  0  0  0  0  0  0  0  0  0  0  0
    2.2886   -8.6148   -3.4477 C   0  0  0  0  0  0  0  0  0  0  0  0
   -0.1356   -8.2247   -3.3490 C   0  0  0  0  0  0  0  0  0  0  0  0
    1.5157   -3.1369   -3.7215 O   0  0  0  0  0  0  0  0  0  0  0  0
    3.2685   -4.6213   -0.9808 C   0  0  0  0  0  0  0  0  0  0  0  0
    2.8697   -4.6370    0.4444 C   0  0  0  0  0  0  0  0  0  0  0  0
    1.7602   -4.1948    2.8854 O   0  0  0  0  0  0  0  0  0  0  0  0
    3.1076   -0.8471    2.9542 C   0  0  0  0  0  0  0  0  0  0  0  0
   -0.0014   -0.9693    3.5884 O   0  0  0  0  0  0  0  0  0  0  0  0
   -2.4826   -4.1089    4.2247 C   0  0  0  0  0  0  0  0  0  0  0  0
   -1.7539   -4.7739    3.0353 C   0  0  0  0  0  0  0  0  0  0  0  0
   -2.3422   -4.2162    1.7812 C   0  0  0  0  0  0  0  0  0  0  0  0
   -1.8139   -4.8576    0.6084 N   0  0  0  0  0  0  0  0  0  0  0  0
   -1.8679   -6.3377    0.6343 C   0  0  0  0  0  0  0  0  0  0  0  0
   -1.3593   -6.8853    1.9791 C   0  0  0  0  0  0  0  0  0  0  0  0
   -2.0040   -6.2017    3.1112 O   0  0  0  0  0  0  0  0  0  0  0  0
   -2.6472   -2.3566    6.8037 O   0  0  0  0  0  0  0  0  0  0  0  0
   -4.8014   -0.6136    6.2125 C   0  0  0  0  0  0  0  0  0  0  0  0
   -6.2715   -0.8169    5.7961 C   0  0  0  0  0  0  0  0  0  0  0  0
   -6.5163   -0.4917    4.3252 C   0  0  0  0  0  0  0  0  0  0  0  0
   -6.7952   -0.5677    1.5101 O   0  0  0  0  0  0  0  0  0  0  0  0
   -1.9856   -2.0859   -1.8453 C   0  0  0  0  0  0  0  0  0  0  0  0
   -1.8850   -2.7605   -3.0583 C   0  0  0  0  0  0  0  0  0  0  0  0
   -1.7928   -4.1938   -3.0589 C   0  0  0  0  0  0  0  0  0  0  0  0
   -1.7653   -4.8391   -1.8143 C   0  0  0  0  0  0  0  0  0  0  0  0
   -1.8491   -4.1509   -0.6079 C   0  0  0  0  0  0  0  0  0  0  0  0
   -1.9506   -2.7419   -0.6108 C   0  0  0  0  0  0  0  0  0  0  0  0
    4.2337   -2.8128    1.0337 F   0  0  0  0  0  0  0  0  0  0  0  0
  1  2  1  0  0  0  0
  2  3  1  0  0  0  0
  2  5  1  0  0  0  0
  3  4  1  0  0  0  0
  5  6  4  0  0  0  0
  5 10  4  0  0  0  0
  6  7  4  0  0  0  0
  7  8  4  0  0  0  0
  8  9  4  0  0  0  0
  9 10  4  0  0  0  0
 10 11  1  0  0  0  0
 11 12  4  0  0  0  0
 11 15  4  0  0  0  0
 12 13  1  0  0  0  0
 12 68  4  0  0  0  0
 13 14  1  0  0  0  0
 15 16  1  0  0  0  0
 15 67  4  0  0  0  0
 16 17  1  0  0  0  0
 17 18  1  0  0  0  0
 17 19  1  0  0  0  0
 17 20  1  0  0  0  0
 20 21  1  0  0  0  0
 21 22  1  0  0  0  0
 22 23  1  0  0  0  0
 22 66  2  0  0  0  0
 23 24  1  0  0  0  0
 23 65  1  0  0  0  0
 24 25  1  0  0  0  0
 25 26  1  0  0  0  0
 25 63  1  0  0  0  0
 26 27  1  0  0  0  0
 26 62  2  0  0  0  0
 27 28  1  0  0  0  0
 27 55  1  0  0  0  0
 28 29  1  0  0  0  0
 29 30  1  0  0  0  0
 29 54  2  0  0  0  0
 30 31  1  0  0  0  0
 30 34  1  0  0  0  0
 31 32  1  0  0  0  0
 31 33  1  0  0  0  0
 34 35  1  0  0  0  0
 34 53  1  0  0  0  0
 35 36  1  0  0  0  0
 35 52  2  0  0  0  0
 36 37  1  0  0  0  0
 36 51  1  0  0  0  0
 36 73  1  0  0  0  0
 37 38  1  0  0  0  0
 38 39  1  0  0  0  0
 39 40  1  0  0  0  0
 39 50  1  0  0  0  0
 40 41  1  0  0  0  0
 40 49  2  0  0  0  0
 41 42  1  0  0  0  0
 42 43  1  0  0  0  0
 43 44  1  0  0  0  0
 43 47  1  0  0  0  0
 43 48  1  0  0  0  0
 44 45  1  0  0  0  0
 44 46  1  0  0  0  0
 50 51  1  0  0  0  0
 55 56  1  0  0  0  0
 56 57  1  0  0  0  0
 56 61  1  0  0  0  0
 57 58  1  0  0  0  0
 58 59  1  0  0  0  0
 58 71  1  0  0  0  0
 59 60  1  0  0  0  0
 60 61  1  0  0  0  0
 63 64  1  0  0  0  0
 64 65  1  0  0  0  0
 67 68  4  0  0  0  0
 67 72  4  0  0  0  0
 68 69  4  0  0  0  0
 69 70  4  0  0  0  0
 70 71  4  0  0  0  0
 71 72  4  0  0  0  0
M  END
$$$$
