mol_ETKDG5_283
  PyMOL3.1          3D                             0

 73 79  0  0  0  0  0  0  0  0999 V2000
    3.3422    0.7445   -6.6615 C   0  0  0  0  0  0  0  0  0  0  0  0
    1.9913    0.9180   -6.0806 C   0  0  0  0  0  0  0  0  0  0  0  0
    1.4404    2.2218   -6.2095 O   0  0  0  0  0  0  0  0  0  0  0  0
    1.9374    3.2233   -5.3460 C   0  0  0  0  0  0  0  0  0  0  0  0
    1.0022   -0.0334   -6.6417 C   0  0  0  0  0  0  0  0  0  0  0  0
    0.5245    0.2012   -7.8574 N   0  0  0  0  0  0  0  0  0  0  0  0
   -0.3447   -0.6470   -8.4514 C   0  0  0  0  0  0  0  0  0  0  0  0
   -0.7788   -1.8149   -7.8189 C   0  0  0  0  0  0  0  0  0  0  0  0
   -0.2828   -2.0875   -6.5391 C   0  0  0  0  0  0  0  0  0  0  0  0
    0.6009   -1.1681   -5.9482 C   0  0  0  0  0  0  0  0  0  0  0  0
    1.0525   -1.4563   -4.6135 C   0  0  0  0  0  0  0  0  0  0  0  0
    2.1447   -2.2111   -4.3418 N   0  0  0  0  0  0  0  0  0  0  0  0
    3.1124   -2.8210   -5.3230 C   0  0  0  0  0  0  0  0  0  0  0  0
    3.0209   -4.2752   -5.4261 C   0  0  0  0  0  0  0  0  0  0  0  0
    0.4732   -0.9616   -3.4129 C   0  0  0  0  0  0  0  0  0  0  0  0
   -0.6396    0.0141   -3.1748 C   0  0  0  0  0  0  0  0  0  0  0  0
   -2.1168   -0.5500   -3.0869 C   0  0  0  0  0  0  0  0  0  0  0  0
   -2.7318   -0.6981   -4.4777 C   0  0  0  0  0  0  0  0  0  0  0  0
   -2.9357    0.5001   -2.4206 C   0  0  0  0  0  0  0  0  0  0  0  0
   -2.2629   -1.8825   -2.3331 C   0  0  0  0  0  0  0  0  0  0  0  0
   -2.7227   -1.7382   -0.8873 O   0  0  0  0  0  0  0  0  0  0  0  0
   -3.6791   -2.5582   -0.2467 C   0  0  0  0  0  0  0  0  0  0  0  0
   -4.0416   -2.2662    1.2081 C   0  0  0  0  0  0  0  0  0  0  0  0
   -3.6356   -0.9395    1.5633 N   0  0  0  0  0  0  0  0  0  0  0  0
   -3.9281   -0.4612    2.8407 N   0  0  0  0  0  0  0  0  0  0  0  0
   -2.9527    0.0912    3.6251 C   0  0  0  0  0  0  0  0  0  0  0  0
   -1.5495    0.1269    3.1039 C   0  0  0  0  0  0  0  0  0  0  0  0
   -0.8730    1.3654    3.4419 N   0  0  0  0  0  0  0  0  0  0  0  0
   -0.6466    2.3401    2.5350 C   0  0  0  0  0  0  0  0  0  0  0  0
    0.2410    3.4584    2.9660 C   0  0  0  0  0  0  0  0  0  0  0  0
   -0.4923    4.7460    3.4539 C   0  0  0  0  0  0  0  0  0  0  0  0
    0.3905    5.6140    4.2993 C   0  0  0  0  0  0  0  0  0  0  0  0
   -1.8284    4.4954    4.0676 C   0  0  0  0  0  0  0  0  0  0  0  0
    1.1509    3.7082    1.8383 N   0  0  0  0  0  0  0  0  0  0  0  0
    2.2635    2.8917    1.7080 C   0  0  0  0  0  0  0  0  0  0  0  0
    3.2443    2.9304    0.5570 C   0  0  0  0  0  0  0  0  0  0  0  0
    4.5506    2.1788    0.8794 C   0  0  0  0  0  0  0  0  0  0  0  0
    5.4436    2.0759   -0.3257 C   0  0  0  0  0  0  0  0  0  0  0  0
    4.6958    1.5547   -1.4895 N   0  0  0  0  0  0  0  0  0  0  0  0
    5.0962    0.4814   -2.2543 C   0  0  0  0  0  0  0  0  0  0  0  0
    6.0007   -0.4796   -1.8109 C   0  0  0  0  0  0  0  0  0  0  0  0
    6.7798   -1.3361   -1.5849 C   0  0  0  0  0  0  0  0  0  0  0  0
    7.7317   -2.3004   -1.1754 C   0  0  0  0  0  0  0  0  0  0  0  0
    8.9405   -2.1565   -1.9145 N   0  0  0  0  0  0  0  0  0  0  0  0
    9.5272   -0.8842   -2.0538 C   0  0  0  0  0  0  0  0  0  0  0  0
    9.6617   -3.2437   -2.4400 C   0  0  0  0  0  0  0  0  0  0  0  0
    7.1388   -3.6780   -1.3601 C   0  0  0  0  0  0  0  0  0  0  0  0
    8.0278   -2.1389    0.3126 C   0  0  0  0  0  0  0  0  0  0  0  0
    4.5868    0.3104   -3.3750 O   0  0  0  0  0  0  0  0  0  0  0  0
    3.4652    2.2148   -1.8096 C   0  0  0  0  0  0  0  0  0  0  0  0
    2.5591    2.2403   -0.6196 C   0  0  0  0  0  0  0  0  0  0  0  0
    2.4453    2.0273    2.5900 O   0  0  0  0  0  0  0  0  0  0  0  0
    0.7791    4.7230    0.8324 C   0  0  0  0  0  0  0  0  0  0  0  0
   -1.0588    2.2159    1.3893 O   0  0  0  0  0  0  0  0  0  0  0  0
   -0.7233   -1.0927    3.6729 C   0  0  0  0  0  0  0  0  0  0  0  0
    0.7255   -1.1606    3.1228 C   0  0  0  0  0  0  0  0  0  0  0  0
    0.6698   -1.7564    1.7579 C   0  0  0  0  0  0  0  0  0  0  0  0
    1.9918   -1.9117    1.1909 N   0  0  0  0  0  0  0  0  0  0  0  0
    2.9308   -2.6670    2.0686 C   0  0  0  0  0  0  0  0  0  0  0  0
    2.9002   -2.1011    3.4992 C   0  0  0  0  0  0  0  0  0  0  0  0
    1.5165   -1.9998    4.0006 O   0  0  0  0  0  0  0  0  0  0  0  0
   -3.1911    0.5102    4.7720 O   0  0  0  0  0  0  0  0  0  0  0  0
   -5.3385   -0.5176    3.2371 C   0  0  0  0  0  0  0  0  0  0  0  0
   -5.9106   -1.9175    2.9163 C   0  0  0  0  0  0  0  0  0  0  0  0
   -5.5677   -2.3929    1.4965 C   0  0  0  0  0  0  0  0  0  0  0  0
   -4.2436   -3.5175   -0.8061 O   0  0  0  0  0  0  0  0  0  0  0  0
    1.2610   -1.5311   -2.4039 C   0  0  0  0  0  0  0  0  0  0  0  0
    2.2734   -2.2760   -3.0082 C   0  0  0  0  0  0  0  0  0  0  0  0
    3.2356   -2.9415   -2.1848 C   0  0  0  0  0  0  0  0  0  0  0  0
    3.1064   -2.7938   -0.7944 C   0  0  0  0  0  0  0  0  0  0  0  0
    2.0874   -2.0377   -0.2080 C   0  0  0  0  0  0  0  0  0  0  0  0
    1.1453   -1.3752   -1.0206 C   0  0  0  0  0  0  0  0  0  0  0  0
    3.5875    4.2312    0.2349 F   0  0  0  0  0  0  0  0  0  0  0  0
  1  2  1  0  0  0  0
  2  3  1  0  0  0  0
  2  5  1  0  0  0  0
  3  4  1  0  0  0  0
  5  6  4  0  0  0  0
  5 10  4  0  0  0  0
  6  7  4  0  0  0  0
  7  8  4  0  0  0  0
  8  9  4  0  0  0  0
  9 10  4  0  0  0  0
 10 11  1  0  0  0  0
 11 12  4  0  0  0  0
 11 15  4  0  0  0  0
 12 13  1  0  0  0  0
 12 68  4  0  0  0  0
 13 14  1  0  0  0  0
 15 16  1  0  0  0  0
 15 67  4  0  0  0  0
 16 17  1  0  0  0  0
 17 18  1  0  0  0  0
 17 19  1  0  0  0  0
 17 20  1  0  0  0  0
 20 21  1  0  0  0  0
 21 22  1  0  0  0  0
 22 23  1  0  0  0  0
 22 66  2  0  0  0  0
 23 24  1  0  0  0  0
 23 65  1  0  0  0  0
 24 25  1  0  0  0  0
 25 26  1  0  0  0  0
 25 63  1  0  0  0  0
 26 27  1  0  0  0  0
 26 62  2  0  0  0  0
 27 28  1  0  0  0  0
 27 55  1  0  0  0  0
 28 29  1  0  0  0  0
 29 30  1  0  0  0  0
 29 54  2  0  0  0  0
 30 31  1  0  0  0  0
 30 34  1  0  0  0  0
 31 32  1  0  0  0  0
 31 33  1  0  0  0  0
 34 35  1  0  0  0  0
 34 53  1  0  0  0  0
 35 36  1  0  0  0  0
 35 52  2  0  0  0  0
 36 37  1  0  0  0  0
 36 51  1  0  0  0  0
 36 73  1  0  0  0  0
 37 38  1  0  0  0  0
 38 39  1  0  0  0  0
 39 40  1  0  0  0  0
 39 50  1  0  0  0  0
 40 41  1  0  0  0  0
 40 49  2  0  0  0  0
 41 42  1  0  0  0  0
 42 43  1  0  0  0  0
 43 44  1  0  0  0  0
 43 47  1  0  0  0  0
 43 48  1  0  0  0  0
 44 45  1  0  0  0  0
 44 46  1  0  0  0  0
 50 51  1  0  0  0  0
 55 56  1  0  0  0  0
 56 57  1  0  0  0  0
 56 61  1  0  0  0  0
 57 58  1  0  0  0  0
 58 59  1  0  0  0  0
 58 71  1  0  0  0  0
 59 60  1  0  0  0  0
 60 61  1  0  0  0  0
 63 64  1  0  0  0  0
 64 65  1  0  0  0  0
 67 68  4  0  0  0  0
 67 72  4  0  0  0  0
 68 69  4  0  0  0  0
 69 70  4  0  0  0  0
 70 71  4  0  0  0  0
 71 72  4  0  0  0  0
M  END
$$$$
