mol_ETKDG3_155
  PyMOL3.1          3D                             0

 73 79  0  0  0  0  0  0  0  0999 V2000
    6.3444    2.2611    1.4782 C   0  0  0  0  0  0  0  0  0  0  0  0
    5.9473    2.6460    0.0999 C   0  0  0  0  0  0  0  0  0  0  0  0
    6.0385    4.0313   -0.1898 O   0  0  0  0  0  0  0  0  0  0  0  0
    4.9717    4.8471    0.2057 C   0  0  0  0  0  0  0  0  0  0  0  0
    6.7471    1.9599   -0.9321 C   0  0  0  0  0  0  0  0  0  0  0  0
    7.9472    2.4401   -1.2019 N   0  0  0  0  0  0  0  0  0  0  0  0
    8.7507    1.8471   -2.1093 C   0  0  0  0  0  0  0  0  0  0  0  0
    8.3547    0.6929   -2.7911 C   0  0  0  0  0  0  0  0  0  0  0  0
    7.0921    0.1597   -2.5084 C   0  0  0  0  0  0  0  0  0  0  0  0
    6.2751    0.8245   -1.5789 C   0  0  0  0  0  0  0  0  0  0  0  0
    4.9543    0.3001   -1.3108 C   0  0  0  0  0  0  0  0  0  0  0  0
    4.7233   -0.7601   -0.4971 N   0  0  0  0  0  0  0  0  0  0  0  0
    5.7334   -1.5440    0.2860 C   0  0  0  0  0  0  0  0  0  0  0  0
    6.0050   -2.8687   -0.2584 C   0  0  0  0  0  0  0  0  0  0  0  0
    3.7283    0.8540   -1.7695 C   0  0  0  0  0  0  0  0  0  0  0  0
    3.4526    2.0911   -2.5926 C   0  0  0  0  0  0  0  0  0  0  0  0
    3.3381    1.8522   -4.1614 C   0  0  0  0  0  0  0  0  0  0  0  0
    4.5223    1.1004   -4.7250 C   0  0  0  0  0  0  0  0  0  0  0  0
    3.3540    3.2007   -4.8454 C   0  0  0  0  0  0  0  0  0  0  0  0
    2.0693    1.0746   -4.4809 C   0  0  0  0  0  0  0  0  0  0  0  0
    0.7893    1.8949   -4.5082 O   0  0  0  0  0  0  0  0  0  0  0  0
   -0.0522    2.0024   -5.6626 C   0  0  0  0  0  0  0  0  0  0  0  0
   -1.3835    2.7136   -5.5273 C   0  0  0  0  0  0  0  0  0  0  0  0
   -1.4092    3.5326   -4.3593 N   0  0  0  0  0  0  0  0  0  0  0  0
   -2.6012    4.2095   -4.1174 N   0  0  0  0  0  0  0  0  0  0  0  0
   -3.2692    4.0504   -2.9446 C   0  0  0  0  0  0  0  0  0  0  0  0
   -2.6709    3.1664   -1.8935 C   0  0  0  0  0  0  0  0  0  0  0  0
   -2.9232    3.6848   -0.5706 N   0  0  0  0  0  0  0  0  0  0  0  0
   -1.9971    4.2998    0.1669 C   0  0  0  0  0  0  0  0  0  0  0  0
   -2.3925    4.6325    1.5643 C   0  0  0  0  0  0  0  0  0  0  0  0
   -2.6616    6.1542    1.7819 C   0  0  0  0  0  0  0  0  0  0  0  0
   -3.3467    6.4510    3.0703 C   0  0  0  0  0  0  0  0  0  0  0  0
   -3.3082    6.8122    0.6053 C   0  0  0  0  0  0  0  0  0  0  0  0
   -1.3236    4.1079    2.4204 N   0  0  0  0  0  0  0  0  0  0  0  0
   -1.3285    2.7674    2.7334 C   0  0  0  0  0  0  0  0  0  0  0  0
   -0.2572    2.0717    3.5235 C   0  0  0  0  0  0  0  0  0  0  0  0
   -0.6021    0.6233    3.8786 C   0  0  0  0  0  0  0  0  0  0  0  0
    0.5191   -0.0434    4.5627 C   0  0  0  0  0  0  0  0  0  0  0  0
    1.8006    0.1556    3.8627 N   0  0  0  0  0  0  0  0  0  0  0  0
    2.7078   -0.8214    3.6705 C   0  0  0  0  0  0  0  0  0  0  0  0
    2.4539   -2.1293    4.0090 C   0  0  0  0  0  0  0  0  0  0  0  0
    2.3859   -3.2348    4.3268 C   0  0  0  0  0  0  0  0  0  0  0  0
    2.1121   -4.5303    4.7861 C   0  0  0  0  0  0  0  0  0  0  0  0
    2.5332   -4.6345    6.1441 N   0  0  0  0  0  0  0  0  0  0  0  0
    1.9448   -3.7971    7.1131 C   0  0  0  0  0  0  0  0  0  0  0  0
    3.4891   -5.5454    6.5891 C   0  0  0  0  0  0  0  0  0  0  0  0
    2.7952   -5.5308    3.8968 C   0  0  0  0  0  0  0  0  0  0  0  0
    0.6077   -4.8263    4.7099 C   0  0  0  0  0  0  0  0  0  0  0  0
    3.8015   -0.5339    3.1604 O   0  0  0  0  0  0  0  0  0  0  0  0
    2.1026    1.4620    3.3888 C   0  0  0  0  0  0  0  0  0  0  0  0
    0.9884    2.0575    2.6622 C   0  0  0  0  0  0  0  0  0  0  0  0
   -2.2780    2.0823    2.3107 O   0  0  0  0  0  0  0  0  0  0  0  0
   -0.2238    5.0074    2.8171 C   0  0  0  0  0  0  0  0  0  0  0  0
   -0.8601    4.4520   -0.2573 O   0  0  0  0  0  0  0  0  0  0  0  0
   -3.2849    1.7099   -1.9941 C   0  0  0  0  0  0  0  0  0  0  0  0
   -2.7025    0.7047   -0.9685 C   0  0  0  0  0  0  0  0  0  0  0  0
   -1.3948    0.2435   -1.5039 C   0  0  0  0  0  0  0  0  0  0  0  0
   -0.7863   -0.7579   -0.6650 N   0  0  0  0  0  0  0  0  0  0  0  0
   -1.6509   -1.8851   -0.3025 C   0  0  0  0  0  0  0  0  0  0  0  0
   -3.0491   -1.4052    0.1055 C   0  0  0  0  0  0  0  0  0  0  0  0
   -3.5976   -0.4297   -0.8516 O   0  0  0  0  0  0  0  0  0  0  0  0
   -4.3700    4.5847   -2.7388 O   0  0  0  0  0  0  0  0  0  0  0  0
   -3.0255    5.1343   -5.1652 C   0  0  0  0  0  0  0  0  0  0  0  0
   -3.0262    4.3923   -6.5127 C   0  0  0  0  0  0  0  0  0  0  0  0
   -1.7249    3.6121   -6.7506 C   0  0  0  0  0  0  0  0  0  0  0  0
    0.2287    1.5472   -6.7874 O   0  0  0  0  0  0  0  0  0  0  0  0
    2.7565    0.0095   -1.2055 C   0  0  0  0  0  0  0  0  0  0  0  0
    3.4018   -0.9594   -0.4439 C   0  0  0  0  0  0  0  0  0  0  0  0
    2.6180   -1.9320    0.2596 C   0  0  0  0  0  0  0  0  0  0  0  0
    1.2292   -1.8314    0.1684 C   0  0  0  0  0  0  0  0  0  0  0  0
    0.6036   -0.8411   -0.5946 C   0  0  0  0  0  0  0  0  0  0  0  0
    1.3763    0.1020   -1.2906 C   0  0  0  0  0  0  0  0  0  0  0  0
   -0.0244    2.7408    4.7174 F   0  0  0  0  0  0  0  0  0  0  0  0
  1  2  1  0  0  0  0
  2  3  1  0  0  0  0
  2  5  1  0  0  0  0
  3  4  1  0  0  0  0
  5  6  4  0  0  0  0
  5 10  4  0  0  0  0
  6  7  4  0  0  0  0
  7  8  4  0  0  0  0
  8  9  4  0  0  0  0
  9 10  4  0  0  0  0
 10 11  1  0  0  0  0
 11 12  4  0  0  0  0
 11 15  4  0  0  0  0
 12 13  1  0  0  0  0
 12 68  4  0  0  0  0
 13 14  1  0  0  0  0
 15 16  1  0  0  0  0
 15 67  4  0  0  0  0
 16 17  1  0  0  0  0
 17 18  1  0  0  0  0
 17 19  1  0  0  0  0
 17 20  1  0  0  0  0
 20 21  1  0  0  0  0
 21 22  1  0  0  0  0
 22 23  1  0  0  0  0
 22 66  2  0  0  0  0
 23 24  1  0  0  0  0
 23 65  1  0  0  0  0
 24 25  1  0  0  0  0
 25 26  1  0  0  0  0
 25 63  1  0  0  0  0
 26 27  1  0  0  0  0
 26 62  2  0  0  0  0
 27 28  1  0  0  0  0
 27 55  1  0  0  0  0
 28 29  1  0  0  0  0
 29 30  1  0  0  0  0
 29 54  2  0  0  0  0
 30 31  1  0  0  0  0
 30 34  1  0  0  0  0
 31 32  1  0  0  0  0
 31 33  1  0  0  0  0
 34 35  1  0  0  0  0
 34 53  1  0  0  0  0
 35 36  1  0  0  0  0
 35 52  2  0  0  0  0
 36 37  1  0  0  0  0
 36 51  1  0  0  0  0
 36 73  1  0  0  0  0
 37 38  1  0  0  0  0
 38 39  1  0  0  0  0
 39 40  1  0  0  0  0
 39 50  1  0  0  0  0
 40 41  1  0  0  0  0
 40 49  2  0  0  0  0
 41 42  1  0  0  0  0
 42 43  1  0  0  0  0
 43 44  1  0  0  0  0
 43 47  1  0  0  0  0
 43 48  1  0  0  0  0
 44 45  1  0  0  0  0
 44 46  1  0  0  0  0
 50 51  1  0  0  0  0
 55 56  1  0  0  0  0
 56 57  1  0  0  0  0
 56 61  1  0  0  0  0
 57 58  1  0  0  0  0
 58 59  1  0  0  0  0
 58 71  1  0  0  0  0
 59 60  1  0  0  0  0
 60 61  1  0  0  0  0
 63 64  1  0  0  0  0
 64 65  1  0  0  0  0
 67 68  4  0  0  0  0
 67 72  4  0  0  0  0
 68 69  4  0  0  0  0
 69 70  4  0  0  0  0
 70 71  4  0  0  0  0
 71 72  4  0  0  0  0
M  END
$$$$
