mol_ETKDG4_211
  PyMOL3.1          3D                             0

 73 79  0  0  0  0  0  0  0  0999 V2000
    2.7509    6.5103   -3.9670 C   0  0  0  0  0  0  0  0  0  0  0  0
    3.1817    5.8119   -2.7383 C   0  0  0  0  0  0  0  0  0  0  0  0
    4.2723    4.9164   -2.8958 O   0  0  0  0  0  0  0  0  0  0  0  0
    4.0137    3.6823   -3.5206 C   0  0  0  0  0  0  0  0  0  0  0  0
    3.5439    6.7485   -1.6588 C   0  0  0  0  0  0  0  0  0  0  0  0
    4.7307    7.3346   -1.7203 N   0  0  0  0  0  0  0  0  0  0  0  0
    5.1170    8.2315   -0.7872 C   0  0  0  0  0  0  0  0  0  0  0  0
    4.2784    8.5928    0.2743 C   0  0  0  0  0  0  0  0  0  0  0  0
    3.0178    7.9918    0.3473 C   0  0  0  0  0  0  0  0  0  0  0  0
    2.6582    7.0465   -0.6249 C   0  0  0  0  0  0  0  0  0  0  0  0
    1.3681    6.4081   -0.5088 C   0  0  0  0  0  0  0  0  0  0  0  0
    0.2033    7.0196   -0.8372 N   0  0  0  0  0  0  0  0  0  0  0  0
    0.0192    8.3946   -1.4136 C   0  0  0  0  0  0  0  0  0  0  0  0
   -0.4705    9.3628   -0.4264 C   0  0  0  0  0  0  0  0  0  0  0  0
    1.1300    5.0665   -0.1115 C   0  0  0  0  0  0  0  0  0  0  0  0
    2.0835    3.9500    0.2322 C   0  0  0  0  0  0  0  0  0  0  0  0
    2.5402    3.8979    1.7513 C   0  0  0  0  0  0  0  0  0  0  0  0
    3.2997    5.1334    2.1878 C   0  0  0  0  0  0  0  0  0  0  0  0
    3.5383    2.7754    1.8938 C   0  0  0  0  0  0  0  0  0  0  0  0
    1.3580    3.6922    2.6671 C   0  0  0  0  0  0  0  0  0  0  0  0
    0.9182    2.2430    2.7519 O   0  0  0  0  0  0  0  0  0  0  0  0
    0.6415    1.5504    3.9560 C   0  0  0  0  0  0  0  0  0  0  0  0
    0.2341    0.0897    3.8945 C   0  0  0  0  0  0  0  0  0  0  0  0
    0.4450   -0.4460    2.5801 N   0  0  0  0  0  0  0  0  0  0  0  0
    0.1548   -1.7955    2.3916 N   0  0  0  0  0  0  0  0  0  0  0  0
   -0.6823   -2.2130    1.3958 C   0  0  0  0  0  0  0  0  0  0  0  0
   -1.2887   -1.1930    0.4839 C   0  0  0  0  0  0  0  0  0  0  0  0
   -1.4049   -1.6920   -0.8743 N   0  0  0  0  0  0  0  0  0  0  0  0
   -0.5767   -1.3039   -1.8517 C   0  0  0  0  0  0  0  0  0  0  0  0
   -0.9097   -1.7500   -3.2396 C   0  0  0  0  0  0  0  0  0  0  0  0
   -0.0753   -2.9592   -3.7538 C   0  0  0  0  0  0  0  0  0  0  0  0
   -0.6821   -3.6430   -4.9324 C   0  0  0  0  0  0  0  0  0  0  0  0
    0.4048   -3.8865   -2.6948 C   0  0  0  0  0  0  0  0  0  0  0  0
   -0.7404   -0.5688   -4.0905 N   0  0  0  0  0  0  0  0  0  0  0  0
   -1.7588    0.3500   -4.1333 C   0  0  0  0  0  0  0  0  0  0  0  0
   -1.7110    1.6504   -4.8881 C   0  0  0  0  0  0  0  0  0  0  0  0
   -0.8761    2.5988   -4.0507 C   0  0  0  0  0  0  0  0  0  0  0  0
   -0.7691    3.9329   -4.7040 C   0  0  0  0  0  0  0  0  0  0  0  0
   -2.1231    4.4454   -4.9356 N   0  0  0  0  0  0  0  0  0  0  0  0
   -2.4748    5.6642   -4.4385 C   0  0  0  0  0  0  0  0  0  0  0  0
   -3.7989    6.0278   -4.2344 C   0  0  0  0  0  0  0  0  0  0  0  0
   -4.8464    6.4891   -4.0498 C   0  0  0  0  0  0  0  0  0  0  0  0
   -6.1768    6.9086   -3.9060 C   0  0  0  0  0  0  0  0  0  0  0  0
   -6.3916    8.1727   -4.5398 N   0  0  0  0  0  0  0  0  0  0  0  0
   -5.7053    8.4696   -5.7382 C   0  0  0  0  0  0  0  0  0  0  0  0
   -7.4703    9.0041   -4.2178 C   0  0  0  0  0  0  0  0  0  0  0  0
   -6.4934    6.9823   -2.4299 C   0  0  0  0  0  0  0  0  0  0  0  0
   -7.1091    5.8643   -4.5319 C   0  0  0  0  0  0  0  0  0  0  0  0
   -1.6017    6.4639   -4.1105 O   0  0  0  0  0  0  0  0  0  0  0  0
   -3.0278    3.6017   -5.6724 C   0  0  0  0  0  0  0  0  0  0  0  0
   -3.1126    2.2478   -5.0945 C   0  0  0  0  0  0  0  0  0  0  0  0
   -2.7871    0.0921   -3.4767 O   0  0  0  0  0  0  0  0  0  0  0  0
    0.5587   -0.3413   -4.7578 C   0  0  0  0  0  0  0  0  0  0  0  0
    0.3269   -0.5186   -1.6074 O   0  0  0  0  0  0  0  0  0  0  0  0
   -2.7209   -0.7739    1.0063 C   0  0  0  0  0  0  0  0  0  0  0  0
   -3.3432    0.4015    0.2044 C   0  0  0  0  0  0  0  0  0  0  0  0
   -2.6875    1.6530    0.6841 C   0  0  0  0  0  0  0  0  0  0  0  0
   -3.2515    2.8224    0.0668 N   0  0  0  0  0  0  0  0  0  0  0  0
   -4.7122    2.9246    0.1367 C   0  0  0  0  0  0  0  0  0  0  0  0
   -5.3773    1.5829   -0.2116 C   0  0  0  0  0  0  0  0  0  0  0  0
   -4.7580    0.4615    0.5063 O   0  0  0  0  0  0  0  0  0  0  0  0
   -0.9786   -3.4111    1.2481 O   0  0  0  0  0  0  0  0  0  0  0  0
    0.8588   -2.7262    3.2707 C   0  0  0  0  0  0  0  0  0  0  0  0
    0.6973   -2.2673    4.7341 C   0  0  0  0  0  0  0  0  0  0  0  0
    1.0274   -0.7801    4.9104 C   0  0  0  0  0  0  0  0  0  0  0  0
    0.7035    2.0709    5.0928 O   0  0  0  0  0  0  0  0  0  0  0  0
   -0.2684    4.9450   -0.1854 C   0  0  0  0  0  0  0  0  0  0  0  0
   -0.7935    6.1530   -0.6240 C   0  0  0  0  0  0  0  0  0  0  0  0
   -2.2087    6.2763   -0.8075 C   0  0  0  0  0  0  0  0  0  0  0  0
   -2.9869    5.1411   -0.5749 C   0  0  0  0  0  0  0  0  0  0  0  0
   -2.4411    3.9363   -0.1481 C   0  0  0  0  0  0  0  0  0  0  0  0
   -1.0539    3.8238    0.0562 C   0  0  0  0  0  0  0  0  0  0  0  0
   -1.1837    1.4755   -6.1611 F   0  0  0  0  0  0  0  0  0  0  0  0
  1  2  1  0  0  0  0
  2  3  1  0  0  0  0
  2  5  1  0  0  0  0
  3  4  1  0  0  0  0
  5  6  4  0  0  0  0
  5 10  4  0  0  0  0
  6  7  4  0  0  0  0
  7  8  4  0  0  0  0
  8  9  4  0  0  0  0
  9 10  4  0  0  0  0
 10 11  1  0  0  0  0
 11 12  4  0  0  0  0
 11 15  4  0  0  0  0
 12 13  1  0  0  0  0
 12 68  4  0  0  0  0
 13 14  1  0  0  0  0
 15 16  1  0  0  0  0
 15 67  4  0  0  0  0
 16 17  1  0  0  0  0
 17 18  1  0  0  0  0
 17 19  1  0  0  0  0
 17 20  1  0  0  0  0
 20 21  1  0  0  0  0
 21 22  1  0  0  0  0
 22 23  1  0  0  0  0
 22 66  2  0  0  0  0
 23 24  1  0  0  0  0
 23 65  1  0  0  0  0
 24 25  1  0  0  0  0
 25 26  1  0  0  0  0
 25 63  1  0  0  0  0
 26 27  1  0  0  0  0
 26 62  2  0  0  0  0
 27 28  1  0  0  0  0
 27 55  1  0  0  0  0
 28 29  1  0  0  0  0
 29 30  1  0  0  0  0
 29 54  2  0  0  0  0
 30 31  1  0  0  0  0
 30 34  1  0  0  0  0
 31 32  1  0  0  0  0
 31 33  1  0  0  0  0
 34 35  1  0  0  0  0
 34 53  1  0  0  0  0
 35 36  1  0  0  0  0
 35 52  2  0  0  0  0
 36 37  1  0  0  0  0
 36 51  1  0  0  0  0
 36 73  1  0  0  0  0
 37 38  1  0  0  0  0
 38 39  1  0  0  0  0
 39 40  1  0  0  0  0
 39 50  1  0  0  0  0
 40 41  1  0  0  0  0
 40 49  2  0  0  0  0
 41 42  1  0  0  0  0
 42 43  1  0  0  0  0
 43 44  1  0  0  0  0
 43 47  1  0  0  0  0
 43 48  1  0  0  0  0
 44 45  1  0  0  0  0
 44 46  1  0  0  0  0
 50 51  1  0  0  0  0
 55 56  1  0  0  0  0
 56 57  1  0  0  0  0
 56 61  1  0  0  0  0
 57 58  1  0  0  0  0
 58 59  1  0  0  0  0
 58 71  1  0  0  0  0
 59 60  1  0  0  0  0
 60 61  1  0  0  0  0
 63 64  1  0  0  0  0
 64 65  1  0  0  0  0
 67 68  4  0  0  0  0
 67 72  4  0  0  0  0
 68 69  4  0  0  0  0
 69 70  4  0  0  0  0
 70 71  4  0  0  0  0
 71 72  4  0  0  0  0
M  END
$$$$
