mol_ETKDG2_144
  PyMOL3.1          3D                             0

 73 79  0  0  0  0  0  0  0  0999 V2000
   -4.7389   -5.1745    2.7803 C   0  0  0  0  0  0  0  0  0  0  0  0
   -3.2808   -5.0307    2.9352 C   0  0  0  0  0  0  0  0  0  0  0  0
   -2.4966   -6.0525    2.3544 O   0  0  0  0  0  0  0  0  0  0  0  0
   -2.3683   -6.0480    0.9569 C   0  0  0  0  0  0  0  0  0  0  0  0
   -2.8653   -4.9496    4.3429 C   0  0  0  0  0  0  0  0  0  0  0  0
   -2.8654   -6.0608    5.0578 N   0  0  0  0  0  0  0  0  0  0  0  0
   -2.5282   -6.0509    6.3643 C   0  0  0  0  0  0  0  0  0  0  0  0
   -2.1689   -4.8729    7.0187 C   0  0  0  0  0  0  0  0  0  0  0  0
   -2.1690   -3.6904    6.2848 C   0  0  0  0  0  0  0  0  0  0  0  0
   -2.5106   -3.7458    4.9275 C   0  0  0  0  0  0  0  0  0  0  0  0
   -2.4767   -2.5132    4.1855 C   0  0  0  0  0  0  0  0  0  0  0  0
   -3.4612   -1.5909    4.2292 N   0  0  0  0  0  0  0  0  0  0  0  0
   -4.7710   -1.6903    4.9550 C   0  0  0  0  0  0  0  0  0  0  0  0
   -4.8465   -0.8600    6.1452 C   0  0  0  0  0  0  0  0  0  0  0  0
   -1.4751   -2.1232    3.2697 C   0  0  0  0  0  0  0  0  0  0  0  0
   -0.2853   -2.8603    2.7560 C   0  0  0  0  0  0  0  0  0  0  0  0
    1.0303   -2.7325    3.6069 C   0  0  0  0  0  0  0  0  0  0  0  0
    1.0133   -3.6141    4.8462 C   0  0  0  0  0  0  0  0  0  0  0  0
    2.1472   -3.2621    2.7754 C   0  0  0  0  0  0  0  0  0  0  0  0
    1.2764   -1.2998    4.0101 C   0  0  0  0  0  0  0  0  0  0  0  0
    2.1428   -0.5444    3.0352 O   0  0  0  0  0  0  0  0  0  0  0  0
    3.3290    0.1388    3.3910 C   0  0  0  0  0  0  0  0  0  0  0  0
    4.1269    0.8006    2.2844 C   0  0  0  0  0  0  0  0  0  0  0  0
    3.8657    0.1373    1.0403 N   0  0  0  0  0  0  0  0  0  0  0  0
    4.5718    0.5463   -0.0825 N   0  0  0  0  0  0  0  0  0  0  0  0
    3.9296    0.8921   -1.2346 C   0  0  0  0  0  0  0  0  0  0  0  0
    2.4379    0.8815   -1.2352 C   0  0  0  0  0  0  0  0  0  0  0  0
    1.8797    0.4213   -2.4864 N   0  0  0  0  0  0  0  0  0  0  0  0
    1.3775   -0.8025   -2.6607 C   0  0  0  0  0  0  0  0  0  0  0  0
    0.6389   -1.0441   -3.9312 C   0  0  0  0  0  0  0  0  0  0  0  0
    1.4411   -1.7815   -5.0312 C   0  0  0  0  0  0  0  0  0  0  0  0
    0.8242   -1.6482   -6.3843 C   0  0  0  0  0  0  0  0  0  0  0  0
    2.9058   -1.5179   -5.0025 C   0  0  0  0  0  0  0  0  0  0  0  0
   -0.5818   -1.7660   -3.5714 N   0  0  0  0  0  0  0  0  0  0  0  0
   -1.6572   -1.0492   -3.1122 C   0  0  0  0  0  0  0  0  0  0  0  0
   -2.9381   -1.6579   -2.6026 C   0  0  0  0  0  0  0  0  0  0  0  0
   -2.6749   -2.0762   -1.1724 C   0  0  0  0  0  0  0  0  0  0  0  0
   -3.8938   -2.6946   -0.5564 C   0  0  0  0  0  0  0  0  0  0  0  0
   -4.9905   -1.7374   -0.6581 N   0  0  0  0  0  0  0  0  0  0  0  0
   -5.6448   -1.3049    0.4628 C   0  0  0  0  0  0  0  0  0  0  0  0
   -6.2645   -0.0759    0.4778 C   0  0  0  0  0  0  0  0  0  0  0  0
   -6.8142    0.9229    0.6064 C   0  0  0  0  0  0  0  0  0  0  0  0
   -7.4447    2.1830    0.5622 C   0  0  0  0  0  0  0  0  0  0  0  0
   -8.3250    2.3279    1.6697 N   0  0  0  0  0  0  0  0  0  0  0  0
   -9.4034    1.4274    1.7974 C   0  0  0  0  0  0  0  0  0  0  0  0
   -7.9321    3.0169    2.8339 C   0  0  0  0  0  0  0  0  0  0  0  0
   -8.2239    2.3067   -0.7503 C   0  0  0  0  0  0  0  0  0  0  0  0
   -6.4089    3.2767    0.5432 C   0  0  0  0  0  0  0  0  0  0  0  0
   -5.6509   -1.9644    1.4950 O   0  0  0  0  0  0  0  0  0  0  0  0
   -5.2986   -1.2440   -1.9788 C   0  0  0  0  0  0  0  0  0  0  0  0
   -4.1040   -0.6595   -2.6316 C   0  0  0  0  0  0  0  0  0  0  0  0
   -1.5455    0.1944   -3.0778 O   0  0  0  0  0  0  0  0  0  0  0  0
   -0.5686   -3.2379   -3.5821 C   0  0  0  0  0  0  0  0  0  0  0  0
    1.4175   -1.6180   -1.7484 O   0  0  0  0  0  0  0  0  0  0  0  0
    1.9135    2.3386   -0.9743 C   0  0  0  0  0  0  0  0  0  0  0  0
    0.3816    2.4456   -0.8750 C   0  0  0  0  0  0  0  0  0  0  0  0
    0.0200    1.9505    0.4649 C   0  0  0  0  0  0  0  0  0  0  0  0
   -1.3849    2.0736    0.7070 N   0  0  0  0  0  0  0  0  0  0  0  0
   -1.9360    3.4255    0.4811 C   0  0  0  0  0  0  0  0  0  0  0  0
   -1.4482    3.9829   -0.8590 C   0  0  0  0  0  0  0  0  0  0  0  0
    0.0052    3.8398   -1.0003 O   0  0  0  0  0  0  0  0  0  0  0  0
    4.5461    1.2645   -2.2413 O   0  0  0  0  0  0  0  0  0  0  0  0
    6.0267    0.5068    0.0323 C   0  0  0  0  0  0  0  0  0  0  0  0
    6.4494    1.2212    1.3358 C   0  0  0  0  0  0  0  0  0  0  0  0
    5.6579    0.7367    2.5502 C   0  0  0  0  0  0  0  0  0  0  0  0
    3.7610    0.2614    4.5635 O   0  0  0  0  0  0  0  0  0  0  0  0
   -1.8962   -0.8593    2.8334 C   0  0  0  0  0  0  0  0  0  0  0  0
   -3.1113   -0.5752    3.4392 C   0  0  0  0  0  0  0  0  0  0  0  0
   -3.7766    0.6508    3.1411 C   0  0  0  0  0  0  0  0  0  0  0  0
   -3.1746    1.4912    2.2176 C   0  0  0  0  0  0  0  0  0  0  0  0
   -1.9578    1.1940    1.6220 C   0  0  0  0  0  0  0  0  0  0  0  0
   -1.2971   -0.0113    1.9147 C   0  0  0  0  0  0  0  0  0  0  0  0
   -3.3488   -2.7155   -3.3875 F   0  0  0  0  0  0  0  0  0  0  0  0
  1  2  1  0  0  0  0
  2  3  1  0  0  0  0
  2  5  1  0  0  0  0
  3  4  1  0  0  0  0
  5  6  4  0  0  0  0
  5 10  4  0  0  0  0
  6  7  4  0  0  0  0
  7  8  4  0  0  0  0
  8  9  4  0  0  0  0
  9 10  4  0  0  0  0
 10 11  1  0  0  0  0
 11 12  4  0  0  0  0
 11 15  4  0  0  0  0
 12 13  1  0  0  0  0
 12 68  4  0  0  0  0
 13 14  1  0  0  0  0
 15 16  1  0  0  0  0
 15 67  4  0  0  0  0
 16 17  1  0  0  0  0
 17 18  1  0  0  0  0
 17 19  1  0  0  0  0
 17 20  1  0  0  0  0
 20 21  1  0  0  0  0
 21 22  1  0  0  0  0
 22 23  1  0  0  0  0
 22 66  2  0  0  0  0
 23 24  1  0  0  0  0
 23 65  1  0  0  0  0
 24 25  1  0  0  0  0
 25 26  1  0  0  0  0
 25 63  1  0  0  0  0
 26 27  1  0  0  0  0
 26 62  2  0  0  0  0
 27 28  1  0  0  0  0
 27 55  1  0  0  0  0
 28 29  1  0  0  0  0
 29 30  1  0  0  0  0
 29 54  2  0  0  0  0
 30 31  1  0  0  0  0
 30 34  1  0  0  0  0
 31 32  1  0  0  0  0
 31 33  1  0  0  0  0
 34 35  1  0  0  0  0
 34 53  1  0  0  0  0
 35 36  1  0  0  0  0
 35 52  2  0  0  0  0
 36 37  1  0  0  0  0
 36 51  1  0  0  0  0
 36 73  1  0  0  0  0
 37 38  1  0  0  0  0
 38 39  1  0  0  0  0
 39 40  1  0  0  0  0
 39 50  1  0  0  0  0
 40 41  1  0  0  0  0
 40 49  2  0  0  0  0
 41 42  1  0  0  0  0
 42 43  1  0  0  0  0
 43 44  1  0  0  0  0
 43 47  1  0  0  0  0
 43 48  1  0  0  0  0
 44 45  1  0  0  0  0
 44 46  1  0  0  0  0
 50 51  1  0  0  0  0
 55 56  1  0  0  0  0
 56 57  1  0  0  0  0
 56 61  1  0  0  0  0
 57 58  1  0  0  0  0
 58 59  1  0  0  0  0
 58 71  1  0  0  0  0
 59 60  1  0  0  0  0
 60 61  1  0  0  0  0
 63 64  1  0  0  0  0
 64 65  1  0  0  0  0
 67 68  4  0  0  0  0
 67 72  4  0  0  0  0
 68 69  4  0  0  0  0
 69 70  4  0  0  0  0
 70 71  4  0  0  0  0
 71 72  4  0  0  0  0
M  END
$$$$
