mol_ETKDG4_220
  PyMOL3.1          3D                             0

 73 79  0  0  0  0  0  0  0  0999 V2000
    3.1410   -3.6180   -0.0905 C   0  0  0  0  0  0  0  0  0  0  0  0
    2.9489   -2.4351    0.7739 C   0  0  0  0  0  0  0  0  0  0  0  0
    3.1683   -2.6596    2.1593 O   0  0  0  0  0  0  0  0  0  0  0  0
    2.0902   -3.1583    2.8988 C   0  0  0  0  0  0  0  0  0  0  0  0
    3.7962   -1.2981    0.3855 C   0  0  0  0  0  0  0  0  0  0  0  0
    5.0333   -1.2625    0.8518 N   0  0  0  0  0  0  0  0  0  0  0  0
    5.8850   -0.2724    0.5076 C   0  0  0  0  0  0  0  0  0  0  0  0
    5.5042    0.7479   -0.3675 C   0  0  0  0  0  0  0  0  0  0  0  0
    4.2066    0.7159   -0.8860 C   0  0  0  0  0  0  0  0  0  0  0  0
    3.3418   -0.3130   -0.4838 C   0  0  0  0  0  0  0  0  0  0  0  0
    1.9881   -0.3053   -0.9870 C   0  0  0  0  0  0  0  0  0  0  0  0
    1.6452   -0.7254   -2.2248 N   0  0  0  0  0  0  0  0  0  0  0  0
    2.5462   -1.3122   -3.2701 C   0  0  0  0  0  0  0  0  0  0  0  0
    2.8166   -0.4092   -4.3822 C   0  0  0  0  0  0  0  0  0  0  0  0
    0.8339    0.0590   -0.2539 C   0  0  0  0  0  0  0  0  0  0  0  0
    0.6645    0.4203    1.1877 C   0  0  0  0  0  0  0  0  0  0  0  0
    0.8771    1.9320    1.5724 C   0  0  0  0  0  0  0  0  0  0  0  0
    2.3036    2.3984    1.4017 C   0  0  0  0  0  0  0  0  0  0  0  0
    0.6185    2.0386    3.0486 C   0  0  0  0  0  0  0  0  0  0  0  0
   -0.0385    2.8390    0.7889 C   0  0  0  0  0  0  0  0  0  0  0  0
   -1.3813    3.0868    1.4367 O   0  0  0  0  0  0  0  0  0  0  0  0
   -1.9608    4.3718    1.6057 C   0  0  0  0  0  0  0  0  0  0  0  0
   -3.3219    4.4713    2.2596 C   0  0  0  0  0  0  0  0  0  0  0  0
   -3.6820    3.2152    2.8579 N   0  0  0  0  0  0  0  0  0  0  0  0
   -4.9047    3.1631    3.5228 N   0  0  0  0  0  0  0  0  0  0  0  0
   -5.8467    2.2301    3.2033 C   0  0  0  0  0  0  0  0  0  0  0  0
   -5.5136    1.1998    2.1748 C   0  0  0  0  0  0  0  0  0  0  0  0
   -6.0493   -0.0934    2.5110 N   0  0  0  0  0  0  0  0  0  0  0  0
   -5.3071   -1.0683    3.0533 C   0  0  0  0  0  0  0  0  0  0  0  0
   -5.9506   -2.4134    3.1184 C   0  0  0  0  0  0  0  0  0  0  0  0
   -6.5031   -2.8379    4.4930 C   0  0  0  0  0  0  0  0  0  0  0  0
   -6.3574   -1.9014    5.6052 C   0  0  0  0  0  0  0  0  0  0  0  0
   -7.8241   -3.5407    4.3937 C   0  0  0  0  0  0  0  0  0  0  0  0
   -4.9608   -3.3654    2.6096 N   0  0  0  0  0  0  0  0  0  0  0  0
   -4.8423   -3.5099    1.2477 C   0  0  0  0  0  0  0  0  0  0  0  0
   -3.8092   -4.3656    0.5756 C   0  0  0  0  0  0  0  0  0  0  0  0
   -2.5361   -3.5455    0.5088 C   0  0  0  0  0  0  0  0  0  0  0  0
   -1.4328   -4.3052   -0.1352 C   0  0  0  0  0  0  0  0  0  0  0  0
   -1.8879   -4.7828   -1.4430 N   0  0  0  0  0  0  0  0  0  0  0  0
   -1.1780   -4.5326   -2.5769 C   0  0  0  0  0  0  0  0  0  0  0  0
   -1.7687   -4.7414   -3.8014 C   0  0  0  0  0  0  0  0  0  0  0  0
   -2.1609   -4.9447   -4.8523 C   0  0  0  0  0  0  0  0  0  0  0  0
   -2.8203   -5.2478   -6.0627 C   0  0  0  0  0  0  0  0  0  0  0  0
   -1.9184   -5.9286   -6.9415 N   0  0  0  0  0  0  0  0  0  0  0  0
   -1.0029   -5.1813   -7.7010 C   0  0  0  0  0  0  0  0  0  0  0  0
   -1.6035   -7.2898   -6.6921 C   0  0  0  0  0  0  0  0  0  0  0  0
   -3.3397   -3.9746   -6.6909 C   0  0  0  0  0  0  0  0  0  0  0  0
   -4.0306   -6.1260   -5.7860 C   0  0  0  0  0  0  0  0  0  0  0  0
   -0.0332   -4.0922   -2.5267 O   0  0  0  0  0  0  0  0  0  0  0  0
   -3.1214   -5.5182   -1.4790 C   0  0  0  0  0  0  0  0  0  0  0  0
   -4.2242   -4.7847   -0.8352 C   0  0  0  0  0  0  0  0  0  0  0  0
   -5.6295   -2.8633    0.5270 O   0  0  0  0  0  0  0  0  0  0  0  0
   -4.0443   -4.0135    3.5615 C   0  0  0  0  0  0  0  0  0  0  0  0
   -4.1364   -0.8742    3.3198 O   0  0  0  0  0  0  0  0  0  0  0  0
   -6.0424    1.6199    0.7477 C   0  0  0  0  0  0  0  0  0  0  0  0
   -5.6588    0.6291   -0.3819 C   0  0  0  0  0  0  0  0  0  0  0  0
   -4.2434    0.8842   -0.7566 C   0  0  0  0  0  0  0  0  0  0  0  0
   -3.8189    0.0558   -1.8652 N   0  0  0  0  0  0  0  0  0  0  0  0
   -4.7085    0.1275   -3.0408 C   0  0  0  0  0  0  0  0  0  0  0  0
   -6.1765   -0.0328   -2.6220 C   0  0  0  0  0  0  0  0  0  0  0  0
   -6.5193    0.8673   -1.5168 O   0  0  0  0  0  0  0  0  0  0  0  0
   -6.9740    2.2360    3.7233 O   0  0  0  0  0  0  0  0  0  0  0  0
   -5.0696    4.1238    4.6097 C   0  0  0  0  0  0  0  0  0  0  0  0
   -4.7166    5.5357    4.1020 C   0  0  0  0  0  0  0  0  0  0  0  0
   -3.3797    5.5677    3.3576 C   0  0  0  0  0  0  0  0  0  0  0  0
   -1.4338    5.4442    1.2491 O   0  0  0  0  0  0  0  0  0  0  0  0
   -0.2158   -0.0981   -1.1708 C   0  0  0  0  0  0  0  0  0  0  0  0
    0.3175   -0.5883   -2.3566 C   0  0  0  0  0  0  0  0  0  0  0  0
   -0.5638   -0.8824   -3.4465 C   0  0  0  0  0  0  0  0  0  0  0  0
   -1.9316   -0.6721   -3.2444 C   0  0  0  0  0  0  0  0  0  0  0  0
   -2.4446   -0.1623   -2.0430 C   0  0  0  0  0  0  0  0  0  0  0  0
   -1.5742    0.1056   -0.9814 C   0  0  0  0  0  0  0  0  0  0  0  0
   -3.6144   -5.5511    1.2579 F   0  0  0  0  0  0  0  0  0  0  0  0
  1  2  1  0  0  0  0
  2  3  1  0  0  0  0
  2  5  1  0  0  0  0
  3  4  1  0  0  0  0
  5  6  4  0  0  0  0
  5 10  4  0  0  0  0
  6  7  4  0  0  0  0
  7  8  4  0  0  0  0
  8  9  4  0  0  0  0
  9 10  4  0  0  0  0
 10 11  1  0  0  0  0
 11 12  4  0  0  0  0
 11 15  4  0  0  0  0
 12 13  1  0  0  0  0
 12 68  4  0  0  0  0
 13 14  1  0  0  0  0
 15 16  1  0  0  0  0
 15 67  4  0  0  0  0
 16 17  1  0  0  0  0
 17 18  1  0  0  0  0
 17 19  1  0  0  0  0
 17 20  1  0  0  0  0
 20 21  1  0  0  0  0
 21 22  1  0  0  0  0
 22 23  1  0  0  0  0
 22 66  2  0  0  0  0
 23 24  1  0  0  0  0
 23 65  1  0  0  0  0
 24 25  1  0  0  0  0
 25 26  1  0  0  0  0
 25 63  1  0  0  0  0
 26 27  1  0  0  0  0
 26 62  2  0  0  0  0
 27 28  1  0  0  0  0
 27 55  1  0  0  0  0
 28 29  1  0  0  0  0
 29 30  1  0  0  0  0
 29 54  2  0  0  0  0
 30 31  1  0  0  0  0
 30 34  1  0  0  0  0
 31 32  1  0  0  0  0
 31 33  1  0  0  0  0
 34 35  1  0  0  0  0
 34 53  1  0  0  0  0
 35 36  1  0  0  0  0
 35 52  2  0  0  0  0
 36 37  1  0  0  0  0
 36 51  1  0  0  0  0
 36 73  1  0  0  0  0
 37 38  1  0  0  0  0
 38 39  1  0  0  0  0
 39 40  1  0  0  0  0
 39 50  1  0  0  0  0
 40 41  1  0  0  0  0
 40 49  2  0  0  0  0
 41 42  1  0  0  0  0
 42 43  1  0  0  0  0
 43 44  1  0  0  0  0
 43 47  1  0  0  0  0
 43 48  1  0  0  0  0
 44 45  1  0  0  0  0
 44 46  1  0  0  0  0
 50 51  1  0  0  0  0
 55 56  1  0  0  0  0
 56 57  1  0  0  0  0
 56 61  1  0  0  0  0
 57 58  1  0  0  0  0
 58 59  1  0  0  0  0
 58 71  1  0  0  0  0
 59 60  1  0  0  0  0
 60 61  1  0  0  0  0
 63 64  1  0  0  0  0
 64 65  1  0  0  0  0
 67 68  4  0  0  0  0
 67 72  4  0  0  0  0
 68 69  4  0  0  0  0
 69 70  4  0  0  0  0
 70 71  4  0  0  0  0
 71 72  4  0  0  0  0
M  END
$$$$
