mol_ETKDG3_198
  PyMOL3.1          3D                             0

 73 79  0  0  0  0  0  0  0  0999 V2000
   -5.0156    5.2013   -2.7238 C   0  0  0  0  0  0  0  0  0  0  0  0
   -3.9985    4.5198   -3.5485 C   0  0  0  0  0  0  0  0  0  0  0  0
   -4.4862    3.9540   -4.7568 O   0  0  0  0  0  0  0  0  0  0  0  0
   -4.9799    2.6486   -4.6857 C   0  0  0  0  0  0  0  0  0  0  0  0
   -2.8570    5.3824   -3.8927 C   0  0  0  0  0  0  0  0  0  0  0  0
   -2.9864    6.1996   -4.9187 N   0  0  0  0  0  0  0  0  0  0  0  0
   -1.9978    7.0404   -5.2767 C   0  0  0  0  0  0  0  0  0  0  0  0
   -0.7964    7.0991   -4.5709 C   0  0  0  0  0  0  0  0  0  0  0  0
   -0.6413    6.2539   -3.4681 C   0  0  0  0  0  0  0  0  0  0  0  0
   -1.6870    5.3780   -3.1471 C   0  0  0  0  0  0  0  0  0  0  0  0
   -1.4996    4.4862   -2.0352 C   0  0  0  0  0  0  0  0  0  0  0  0
   -1.6788    4.8557   -0.7503 N   0  0  0  0  0  0  0  0  0  0  0  0
   -2.1315    6.1908   -0.2383 C   0  0  0  0  0  0  0  0  0  0  0  0
   -1.0432    6.9660    0.3623 C   0  0  0  0  0  0  0  0  0  0  0  0
   -1.1919    3.1050   -2.1194 C   0  0  0  0  0  0  0  0  0  0  0  0
   -1.0565    2.1994   -3.2992 C   0  0  0  0  0  0  0  0  0  0  0  0
    0.3757    2.0959   -3.9429 C   0  0  0  0  0  0  0  0  0  0  0  0
    0.8135    3.3786   -4.6192 C   0  0  0  0  0  0  0  0  0  0  0  0
    0.2903    1.0905   -5.0564 C   0  0  0  0  0  0  0  0  0  0  0  0
    1.4236    1.6864   -2.9319 C   0  0  0  0  0  0  0  0  0  0  0  0
    1.5555    0.1978   -2.7641 O   0  0  0  0  0  0  0  0  0  0  0  0
    2.7894   -0.5005   -2.7135 C   0  0  0  0  0  0  0  0  0  0  0  0
    2.7722   -2.0091   -2.5695 C   0  0  0  0  0  0  0  0  0  0  0  0
    1.4596   -2.5154   -2.8239 N   0  0  0  0  0  0  0  0  0  0  0  0
    1.2785   -3.8969   -2.7693 N   0  0  0  0  0  0  0  0  0  0  0  0
    0.3273   -4.4490   -1.9663 C   0  0  0  0  0  0  0  0  0  0  0  0
   -0.5188   -3.5392   -1.1349 C   0  0  0  0  0  0  0  0  0  0  0  0
   -1.8785   -4.0075   -1.0305 N   0  0  0  0  0  0  0  0  0  0  0  0
   -2.8800   -3.5047   -1.7652 C   0  0  0  0  0  0  0  0  0  0  0  0
   -4.2481   -3.9623   -1.3984 C   0  0  0  0  0  0  0  0  0  0  0  0
   -4.8622   -5.0689   -2.3016 C   0  0  0  0  0  0  0  0  0  0  0  0
   -6.0333   -5.7398   -1.6668 C   0  0  0  0  0  0  0  0  0  0  0  0
   -3.8570   -6.0305   -2.8466 C   0  0  0  0  0  0  0  0  0  0  0  0
   -5.0797   -2.7697   -1.3229 N   0  0  0  0  0  0  0  0  0  0  0  0
   -5.0642   -2.0412   -0.1611 C   0  0  0  0  0  0  0  0  0  0  0  0
   -5.7858   -0.7399    0.0470 C   0  0  0  0  0  0  0  0  0  0  0  0
   -6.1241   -0.4755    1.5113 C   0  0  0  0  0  0  0  0  0  0  0  0
   -6.7215    0.8906    1.6708 C   0  0  0  0  0  0  0  0  0  0  0  0
   -5.8573    1.9010    1.0327 N   0  0  0  0  0  0  0  0  0  0  0  0
   -5.3779    2.9946    1.6827 C   0  0  0  0  0  0  0  0  0  0  0  0
   -5.3007    3.0294    3.0487 C   0  0  0  0  0  0  0  0  0  0  0  0
   -5.2420    3.1714    4.1784 C   0  0  0  0  0  0  0  0  0  0  0  0
   -5.2323    3.1660    5.5845 C   0  0  0  0  0  0  0  0  0  0  0  0
   -6.0085    4.2598    6.0725 N   0  0  0  0  0  0  0  0  0  0  0  0
   -7.4006    4.0936    6.2331 C   0  0  0  0  0  0  0  0  0  0  0  0
   -5.5218    5.5737    5.9509 C   0  0  0  0  0  0  0  0  0  0  0  0
   -3.8144    3.2450    6.1059 C   0  0  0  0  0  0  0  0  0  0  0  0
   -5.7895    1.8456    6.0760 C   0  0  0  0  0  0  0  0  0  0  0  0
   -4.9393    3.9545    1.0379 O   0  0  0  0  0  0  0  0  0  0  0  0
   -5.4938    1.6791   -0.3274 C   0  0  0  0  0  0  0  0  0  0  0  0
   -4.8500    0.3450   -0.4659 C   0  0  0  0  0  0  0  0  0  0  0  0
   -4.3698   -2.4723    0.7829 O   0  0  0  0  0  0  0  0  0  0  0  0
   -5.7899   -2.3338   -2.5390 C   0  0  0  0  0  0  0  0  0  0  0  0
   -2.6676   -2.6284   -2.5818 O   0  0  0  0  0  0  0  0  0  0  0  0
    0.0986   -3.4160    0.3122 C   0  0  0  0  0  0  0  0  0  0  0  0
   -0.6224   -2.3925    1.2234 C   0  0  0  0  0  0  0  0  0  0  0  0
   -0.1790   -1.0418    0.8068 C   0  0  0  0  0  0  0  0  0  0  0  0
   -0.7286   -0.0133    1.6466 N   0  0  0  0  0  0  0  0  0  0  0  0
   -0.5301   -0.2181    3.0854 C   0  0  0  0  0  0  0  0  0  0  0  0
   -0.8546   -1.6610    3.4847 C   0  0  0  0  0  0  0  0  0  0  0  0
   -0.2137   -2.6338    2.5908 O   0  0  0  0  0  0  0  0  0  0  0  0
    0.1785   -5.6803   -1.8772 O   0  0  0  0  0  0  0  0  0  0  0  0
    2.1287   -4.6834   -3.6605 C   0  0  0  0  0  0  0  0  0  0  0  0
    3.5967   -4.2389   -3.4859 C   0  0  0  0  0  0  0  0  0  0  0  0
    3.7602   -2.7169   -3.5416 C   0  0  0  0  0  0  0  0  0  0  0  0
    3.9119    0.0419   -2.7707 O   0  0  0  0  0  0  0  0  0  0  0  0
   -1.1411    2.6944   -0.7812 C   0  0  0  0  0  0  0  0  0  0  0  0
   -1.4486    3.7869    0.0200 C   0  0  0  0  0  0  0  0  0  0  0  0
   -1.5155    3.6168    1.4392 C   0  0  0  0  0  0  0  0  0  0  0  0
   -1.2760    2.3354    1.9377 C   0  0  0  0  0  0  0  0  0  0  0  0
   -0.9655    1.2538    1.1110 C   0  0  0  0  0  0  0  0  0  0  0  0
   -0.8990    1.4289   -0.2735 C   0  0  0  0  0  0  0  0  0  0  0  0
   -6.9791   -0.6974   -0.6336 F   0  0  0  0  0  0  0  0  0  0  0  0
  1  2  1  0  0  0  0
  2  3  1  0  0  0  0
  2  5  1  0  0  0  0
  3  4  1  0  0  0  0
  5  6  4  0  0  0  0
  5 10  4  0  0  0  0
  6  7  4  0  0  0  0
  7  8  4  0  0  0  0
  8  9  4  0  0  0  0
  9 10  4  0  0  0  0
 10 11  1  0  0  0  0
 11 12  4  0  0  0  0
 11 15  4  0  0  0  0
 12 13  1  0  0  0  0
 12 68  4  0  0  0  0
 13 14  1  0  0  0  0
 15 16  1  0  0  0  0
 15 67  4  0  0  0  0
 16 17  1  0  0  0  0
 17 18  1  0  0  0  0
 17 19  1  0  0  0  0
 17 20  1  0  0  0  0
 20 21  1  0  0  0  0
 21 22  1  0  0  0  0
 22 23  1  0  0  0  0
 22 66  2  0  0  0  0
 23 24  1  0  0  0  0
 23 65  1  0  0  0  0
 24 25  1  0  0  0  0
 25 26  1  0  0  0  0
 25 63  1  0  0  0  0
 26 27  1  0  0  0  0
 26 62  2  0  0  0  0
 27 28  1  0  0  0  0
 27 55  1  0  0  0  0
 28 29  1  0  0  0  0
 29 30  1  0  0  0  0
 29 54  2  0  0  0  0
 30 31  1  0  0  0  0
 30 34  1  0  0  0  0
 31 32  1  0  0  0  0
 31 33  1  0  0  0  0
 34 35  1  0  0  0  0
 34 53  1  0  0  0  0
 35 36  1  0  0  0  0
 35 52  2  0  0  0  0
 36 37  1  0  0  0  0
 36 51  1  0  0  0  0
 36 73  1  0  0  0  0
 37 38  1  0  0  0  0
 38 39  1  0  0  0  0
 39 40  1  0  0  0  0
 39 50  1  0  0  0  0
 40 41  1  0  0  0  0
 40 49  2  0  0  0  0
 41 42  1  0  0  0  0
 42 43  1  0  0  0  0
 43 44  1  0  0  0  0
 43 47  1  0  0  0  0
 43 48  1  0  0  0  0
 44 45  1  0  0  0  0
 44 46  1  0  0  0  0
 50 51  1  0  0  0  0
 55 56  1  0  0  0  0
 56 57  1  0  0  0  0
 56 61  1  0  0  0  0
 57 58  1  0  0  0  0
 58 59  1  0  0  0  0
 58 71  1  0  0  0  0
 59 60  1  0  0  0  0
 60 61  1  0  0  0  0
 63 64  1  0  0  0  0
 64 65  1  0  0  0  0
 67 68  4  0  0  0  0
 67 72  4  0  0  0  0
 68 69  4  0  0  0  0
 69 70  4  0  0  0  0
 70 71  4  0  0  0  0
 71 72  4  0  0  0  0
M  END
$$$$
