mol_ETKDG3_159
  PyMOL3.1          3D                             0

 73 79  0  0  0  0  0  0  0  0999 V2000
   -3.5595   -0.0207    4.0820 C   0  0  0  0  0  0  0  0  0  0  0  0
   -2.9862    1.0989    3.3135 C   0  0  0  0  0  0  0  0  0  0  0  0
   -3.9214    2.0241    2.7855 O   0  0  0  0  0  0  0  0  0  0  0  0
   -4.7236    1.5884    1.7084 C   0  0  0  0  0  0  0  0  0  0  0  0
   -1.9838    1.8708    4.0792 C   0  0  0  0  0  0  0  0  0  0  0  0
   -2.4117    2.8154    4.8994 N   0  0  0  0  0  0  0  0  0  0  0  0
   -1.5522    3.5327    5.6566 C   0  0  0  0  0  0  0  0  0  0  0  0
   -0.1696    3.2976    5.6156 C   0  0  0  0  0  0  0  0  0  0  0  0
    0.2989    2.2874    4.7651 C   0  0  0  0  0  0  0  0  0  0  0  0
   -0.6213    1.5871    3.9761 C   0  0  0  0  0  0  0  0  0  0  0  0
   -0.1314    0.5723    3.0712 C   0  0  0  0  0  0  0  0  0  0  0  0
    0.1894   -0.6922    3.4662 N   0  0  0  0  0  0  0  0  0  0  0  0
    0.1198   -1.2716    4.8528 C   0  0  0  0  0  0  0  0  0  0  0  0
    1.4433   -1.4553    5.4573 C   0  0  0  0  0  0  0  0  0  0  0  0
   -0.0048    0.7071    1.6629 C   0  0  0  0  0  0  0  0  0  0  0  0
   -0.3015    1.8784    0.7465 C   0  0  0  0  0  0  0  0  0  0  0  0
    0.9142    2.8927    0.5382 C   0  0  0  0  0  0  0  0  0  0  0  0
    0.4479    3.9913   -0.4033 C   0  0  0  0  0  0  0  0  0  0  0  0
    1.2652    3.6137    1.7910 C   0  0  0  0  0  0  0  0  0  0  0  0
    2.1505    2.2159   -0.0252 C   0  0  0  0  0  0  0  0  0  0  0  0
    2.1830    2.0626   -1.5205 O   0  0  0  0  0  0  0  0  0  0  0  0
    3.3248    2.2965   -2.3396 C   0  0  0  0  0  0  0  0  0  0  0  0
    3.1959    2.1078   -3.8429 C   0  0  0  0  0  0  0  0  0  0  0  0
    1.8134    1.9244   -4.2021 N   0  0  0  0  0  0  0  0  0  0  0  0
    1.4920    1.7969   -5.5528 N   0  0  0  0  0  0  0  0  0  0  0  0
    0.7275    0.7491   -6.0030 C   0  0  0  0  0  0  0  0  0  0  0  0
    0.2648   -0.2803   -5.0147 C   0  0  0  0  0  0  0  0  0  0  0  0
   -1.0543   -0.8022   -5.3213 N   0  0  0  0  0  0  0  0  0  0  0  0
   -2.1556   -0.4852   -4.6146 C   0  0  0  0  0  0  0  0  0  0  0  0
   -3.3954   -1.2610   -4.9345 C   0  0  0  0  0  0  0  0  0  0  0  0
   -4.3989   -0.5664   -5.9034 C   0  0  0  0  0  0  0  0  0  0  0  0
   -5.3509   -1.5329   -6.5339 C   0  0  0  0  0  0  0  0  0  0  0  0
   -3.7760    0.3775   -6.8732 C   0  0  0  0  0  0  0  0  0  0  0  0
   -4.0209   -1.6134   -3.6533 N   0  0  0  0  0  0  0  0  0  0  0  0
   -3.5290   -2.7036   -2.9634 C   0  0  0  0  0  0  0  0  0  0  0  0
   -4.0110   -3.1762   -1.6100 C   0  0  0  0  0  0  0  0  0  0  0  0
   -3.5216   -4.6010   -1.2911 C   0  0  0  0  0  0  0  0  0  0  0  0
   -3.8740   -5.0028    0.1150 C   0  0  0  0  0  0  0  0  0  0  0  0
   -3.4029   -3.9715    1.0604 N   0  0  0  0  0  0  0  0  0  0  0  0
   -2.5571   -4.2216    2.1157 C   0  0  0  0  0  0  0  0  0  0  0  0
   -1.7073   -5.3241    2.1563 C   0  0  0  0  0  0  0  0  0  0  0  0
   -0.9739   -6.2202    2.3288 C   0  0  0  0  0  0  0  0  0  0  0  0
   -0.1098   -7.3442    2.3864 C   0  0  0  0  0  0  0  0  0  0  0  0
   -0.2219   -7.9881    3.6544 N   0  0  0  0  0  0  0  0  0  0  0  0
   -1.0883   -9.0800    3.8400 C   0  0  0  0  0  0  0  0  0  0  0  0
    0.3411   -7.4095    4.8130 C   0  0  0  0  0  0  0  0  0  0  0  0
    1.3316   -6.9213    2.1588 C   0  0  0  0  0  0  0  0  0  0  0  0
   -0.4458   -8.2970    1.2527 C   0  0  0  0  0  0  0  0  0  0  0  0
   -2.4908   -3.4056    3.0484 O   0  0  0  0  0  0  0  0  0  0  0  0
   -3.8492   -2.6297    0.8091 C   0  0  0  0  0  0  0  0  0  0  0  0
   -3.4287   -2.2185   -0.5754 C   0  0  0  0  0  0  0  0  0  0  0  0
   -2.5941   -3.3326   -3.4958 O   0  0  0  0  0  0  0  0  0  0  0  0
   -5.0631   -0.7326   -3.0986 C   0  0  0  0  0  0  0  0  0  0  0  0
   -2.0916    0.3008   -3.6805 O   0  0  0  0  0  0  0  0  0  0  0  0
    1.2961   -1.4813   -4.9755 C   0  0  0  0  0  0  0  0  0  0  0  0
    0.9971   -2.5309   -3.8708 C   0  0  0  0  0  0  0  0  0  0  0  0
    1.4465   -1.9510   -2.5751 C   0  0  0  0  0  0  0  0  0  0  0  0
    1.3039   -2.8741   -1.4852 N   0  0  0  0  0  0  0  0  0  0  0  0
    1.8913   -4.2077   -1.7161 C   0  0  0  0  0  0  0  0  0  0  0  0
    1.5269   -4.7420   -3.1147 C   0  0  0  0  0  0  0  0  0  0  0  0
    1.7576   -3.7312   -4.1588 O   0  0  0  0  0  0  0  0  0  0  0  0
    0.4518    0.6113   -7.2049 O   0  0  0  0  0  0  0  0  0  0  0  0
    1.9497    2.8834   -6.4247 C   0  0  0  0  0  0  0  0  0  0  0  0
    3.4481    3.1688   -6.1553 C   0  0  0  0  0  0  0  0  0  0  0  0
    3.7552    3.3154   -4.6568 C   0  0  0  0  0  0  0  0  0  0  0  0
    4.4393    2.6526   -1.9003 O   0  0  0  0  0  0  0  0  0  0  0  0
    0.4318   -0.5662    1.2489 C   0  0  0  0  0  0  0  0  0  0  0  0
    0.5436   -1.3838    2.3763 C   0  0  0  0  0  0  0  0  0  0  0  0
    0.9545   -2.7473    2.2165 C   0  0  0  0  0  0  0  0  0  0  0  0
    1.1933   -3.1993    0.9142 C   0  0  0  0  0  0  0  0  0  0  0  0
    1.0621   -2.3741   -0.1986 C   0  0  0  0  0  0  0  0  0  0  0  0
    0.6687   -1.0280   -0.0424 C   0  0  0  0  0  0  0  0  0  0  0  0
   -5.3922   -3.1924   -1.5509 F   0  0  0  0  0  0  0  0  0  0  0  0
  1  2  1  0  0  0  0
  2  3  1  0  0  0  0
  2  5  1  0  0  0  0
  3  4  1  0  0  0  0
  5  6  4  0  0  0  0
  5 10  4  0  0  0  0
  6  7  4  0  0  0  0
  7  8  4  0  0  0  0
  8  9  4  0  0  0  0
  9 10  4  0  0  0  0
 10 11  1  0  0  0  0
 11 12  4  0  0  0  0
 11 15  4  0  0  0  0
 12 13  1  0  0  0  0
 12 68  4  0  0  0  0
 13 14  1  0  0  0  0
 15 16  1  0  0  0  0
 15 67  4  0  0  0  0
 16 17  1  0  0  0  0
 17 18  1  0  0  0  0
 17 19  1  0  0  0  0
 17 20  1  0  0  0  0
 20 21  1  0  0  0  0
 21 22  1  0  0  0  0
 22 23  1  0  0  0  0
 22 66  2  0  0  0  0
 23 24  1  0  0  0  0
 23 65  1  0  0  0  0
 24 25  1  0  0  0  0
 25 26  1  0  0  0  0
 25 63  1  0  0  0  0
 26 27  1  0  0  0  0
 26 62  2  0  0  0  0
 27 28  1  0  0  0  0
 27 55  1  0  0  0  0
 28 29  1  0  0  0  0
 29 30  1  0  0  0  0
 29 54  2  0  0  0  0
 30 31  1  0  0  0  0
 30 34  1  0  0  0  0
 31 32  1  0  0  0  0
 31 33  1  0  0  0  0
 34 35  1  0  0  0  0
 34 53  1  0  0  0  0
 35 36  1  0  0  0  0
 35 52  2  0  0  0  0
 36 37  1  0  0  0  0
 36 51  1  0  0  0  0
 36 73  1  0  0  0  0
 37 38  1  0  0  0  0
 38 39  1  0  0  0  0
 39 40  1  0  0  0  0
 39 50  1  0  0  0  0
 40 41  1  0  0  0  0
 40 49  2  0  0  0  0
 41 42  1  0  0  0  0
 42 43  1  0  0  0  0
 43 44  1  0  0  0  0
 43 47  1  0  0  0  0
 43 48  1  0  0  0  0
 44 45  1  0  0  0  0
 44 46  1  0  0  0  0
 50 51  1  0  0  0  0
 55 56  1  0  0  0  0
 56 57  1  0  0  0  0
 56 61  1  0  0  0  0
 57 58  1  0  0  0  0
 58 59  1  0  0  0  0
 58 71  1  0  0  0  0
 59 60  1  0  0  0  0
 60 61  1  0  0  0  0
 63 64  1  0  0  0  0
 64 65  1  0  0  0  0
 67 68  4  0  0  0  0
 67 72  4  0  0  0  0
 68 69  4  0  0  0  0
 69 70  4  0  0  0  0
 70 71  4  0  0  0  0
 71 72  4  0  0  0  0
M  END
$$$$
