mol_ETKDG4_201
  PyMOL3.1          3D                             0

 73 79  0  0  0  0  0  0  0  0999 V2000
   -2.7562   -1.7339   -3.6409 C   0  0  0  0  0  0  0  0  0  0  0  0
   -2.1139   -3.0011   -3.2746 C   0  0  0  0  0  0  0  0  0  0  0  0
   -2.7933   -3.7898   -2.3155 O   0  0  0  0  0  0  0  0  0  0  0  0
   -2.7440   -3.3484   -0.9802 C   0  0  0  0  0  0  0  0  0  0  0  0
   -1.8210   -3.8609   -4.4263 C   0  0  0  0  0  0  0  0  0  0  0  0
   -2.7614   -4.6907   -4.8406 N   0  0  0  0  0  0  0  0  0  0  0  0
   -2.5675   -5.4915   -5.9103 C   0  0  0  0  0  0  0  0  0  0  0  0
   -1.3688   -5.4698   -6.6305 C   0  0  0  0  0  0  0  0  0  0  0  0
   -0.3680   -4.5852   -6.2174 C   0  0  0  0  0  0  0  0  0  0  0  0
   -0.6020   -3.7823   -5.0880 C   0  0  0  0  0  0  0  0  0  0  0  0
    0.4354   -2.8795   -4.6514 C   0  0  0  0  0  0  0  0  0  0  0  0
    0.6835   -1.6897   -5.2559 N   0  0  0  0  0  0  0  0  0  0  0  0
   -0.0279   -1.0797   -6.4314 C   0  0  0  0  0  0  0  0  0  0  0  0
    0.7246   -1.2457   -7.6880 C   0  0  0  0  0  0  0  0  0  0  0  0
    1.2654   -3.0452   -3.5140 C   0  0  0  0  0  0  0  0  0  0  0  0
    1.2858   -4.1196   -2.4468 C   0  0  0  0  0  0  0  0  0  0  0  0
    2.1783   -5.3957   -2.7615 C   0  0  0  0  0  0  0  0  0  0  0  0
    2.0022   -6.3917   -1.6180 C   0  0  0  0  0  0  0  0  0  0  0  0
    1.7276   -6.1352   -3.9597 C   0  0  0  0  0  0  0  0  0  0  0  0
    3.6378   -5.0451   -2.9105 C   0  0  0  0  0  0  0  0  0  0  0  0
    4.3853   -4.8386   -1.6272 O   0  0  0  0  0  0  0  0  0  0  0  0
    5.7465   -5.1830   -1.4289 C   0  0  0  0  0  0  0  0  0  0  0  0
    6.3706   -4.8923   -0.0795 C   0  0  0  0  0  0  0  0  0  0  0  0
    5.3597   -4.4603    0.8331 N   0  0  0  0  0  0  0  0  0  0  0  0
    5.7225   -4.2303    2.1544 N   0  0  0  0  0  0  0  0  0  0  0  0
    5.4339   -3.0420    2.7634 C   0  0  0  0  0  0  0  0  0  0  0  0
    4.7802   -1.9756    1.9395 C   0  0  0  0  0  0  0  0  0  0  0  0
    3.7920   -1.2161    2.6786 N   0  0  0  0  0  0  0  0  0  0  0  0
    2.4694   -1.3207    2.4537 C   0  0  0  0  0  0  0  0  0  0  0  0
    1.6119   -0.3384    3.1751 C   0  0  0  0  0  0  0  0  0  0  0  0
    0.8932   -0.9070    4.4295 C   0  0  0  0  0  0  0  0  0  0  0  0
    0.4144    0.1518    5.3568 C   0  0  0  0  0  0  0  0  0  0  0  0
    1.6216   -2.0188    5.1002 C   0  0  0  0  0  0  0  0  0  0  0  0
    0.6506    0.1871    2.1995 N   0  0  0  0  0  0  0  0  0  0  0  0
    1.0414    1.2228    1.3668 C   0  0  0  0  0  0  0  0  0  0  0  0
    0.1757    1.8327    0.2950 C   0  0  0  0  0  0  0  0  0  0  0  0
    0.5544    3.2644   -0.0832 C   0  0  0  0  0  0  0  0  0  0  0  0
   -0.3085    3.7543   -1.1963 C   0  0  0  0  0  0  0  0  0  0  0  0
   -0.3566    2.7959   -2.3180 N   0  0  0  0  0  0  0  0  0  0  0  0
   -0.2660    3.1446   -3.6305 C   0  0  0  0  0  0  0  0  0  0  0  0
   -0.1540    4.4555   -4.0344 C   0  0  0  0  0  0  0  0  0  0  0  0
   -0.1198    5.5022   -4.5416 C   0  0  0  0  0  0  0  0  0  0  0  0
   -0.0730    6.8093   -5.0364 C   0  0  0  0  0  0  0  0  0  0  0  0
   -0.2321    6.7820   -6.4524 N   0  0  0  0  0  0  0  0  0  0  0  0
    0.8449    6.9673   -7.3294 C   0  0  0  0  0  0  0  0  0  0  0  0
   -1.4509    6.3182   -7.0143 C   0  0  0  0  0  0  0  0  0  0  0  0
    1.2312    7.4570   -4.6260 C   0  0  0  0  0  0  0  0  0  0  0  0
   -1.1847    7.6537   -4.4314 C   0  0  0  0  0  0  0  0  0  0  0  0
   -0.2897    2.2548   -4.5017 O   0  0  0  0  0  0  0  0  0  0  0  0
   -0.5379    1.4180   -2.0115 C   0  0  0  0  0  0  0  0  0  0  0  0
    0.3261    0.9474   -0.9352 C   0  0  0  0  0  0  0  0  0  0  0  0
    2.2023    1.6551    1.4944 O   0  0  0  0  0  0  0  0  0  0  0  0
   -0.6492   -0.4836    2.0562 C   0  0  0  0  0  0  0  0  0  0  0  0
    2.0331   -2.0999    1.6213 O   0  0  0  0  0  0  0  0  0  0  0  0
    5.8849   -1.0000    1.3871 C   0  0  0  0  0  0  0  0  0  0  0  0
    5.3545    0.0485    0.3873 C   0  0  0  0  0  0  0  0  0  0  0  0
    5.0268   -0.6809   -0.8681 C   0  0  0  0  0  0  0  0  0  0  0  0
    4.5970    0.2137   -1.8981 N   0  0  0  0  0  0  0  0  0  0  0  0
    5.5104    1.3282   -2.1758 C   0  0  0  0  0  0  0  0  0  0  0  0
    5.9817    1.9852   -0.8659 C   0  0  0  0  0  0  0  0  0  0  0  0
    6.4232    0.9917    0.1162 O   0  0  0  0  0  0  0  0  0  0  0  0
    5.7377   -2.8159    3.9417 O   0  0  0  0  0  0  0  0  0  0  0  0
    6.3661   -5.3470    2.8454 C   0  0  0  0  0  0  0  0  0  0  0  0
    7.5297   -5.8785    1.9752 C   0  0  0  0  0  0  0  0  0  0  0  0
    7.0935   -6.1321    0.5243 C   0  0  0  0  0  0  0  0  0  0  0  0
    6.4755   -5.7308   -2.2827 O   0  0  0  0  0  0  0  0  0  0  0  0
    2.0565   -1.8805   -3.5186 C   0  0  0  0  0  0  0  0  0  0  0  0
    1.6706   -1.0860   -4.5956 C   0  0  0  0  0  0  0  0  0  0  0  0
    2.3065    0.1810   -4.8046 C   0  0  0  0  0  0  0  0  0  0  0  0
    3.2695    0.5767   -3.8865 C   0  0  0  0  0  0  0  0  0  0  0  0
    3.6369   -0.2216   -2.8079 C   0  0  0  0  0  0  0  0  0  0  0  0
    3.0258   -1.4819   -2.6161 C   0  0  0  0  0  0  0  0  0  0  0  0
   -1.1379    1.8977    0.6905 F   0  0  0  0  0  0  0  0  0  0  0  0
  1  2  1  0  0  0  0
  2  3  1  0  0  0  0
  2  5  1  0  0  0  0
  3  4  1  0  0  0  0
  5  6  4  0  0  0  0
  5 10  4  0  0  0  0
  6  7  4  0  0  0  0
  7  8  4  0  0  0  0
  8  9  4  0  0  0  0
  9 10  4  0  0  0  0
 10 11  1  0  0  0  0
 11 12  4  0  0  0  0
 11 15  4  0  0  0  0
 12 13  1  0  0  0  0
 12 68  4  0  0  0  0
 13 14  1  0  0  0  0
 15 16  1  0  0  0  0
 15 67  4  0  0  0  0
 16 17  1  0  0  0  0
 17 18  1  0  0  0  0
 17 19  1  0  0  0  0
 17 20  1  0  0  0  0
 20 21  1  0  0  0  0
 21 22  1  0  0  0  0
 22 23  1  0  0  0  0
 22 66  2  0  0  0  0
 23 24  1  0  0  0  0
 23 65  1  0  0  0  0
 24 25  1  0  0  0  0
 25 26  1  0  0  0  0
 25 63  1  0  0  0  0
 26 27  1  0  0  0  0
 26 62  2  0  0  0  0
 27 28  1  0  0  0  0
 27 55  1  0  0  0  0
 28 29  1  0  0  0  0
 29 30  1  0  0  0  0
 29 54  2  0  0  0  0
 30 31  1  0  0  0  0
 30 34  1  0  0  0  0
 31 32  1  0  0  0  0
 31 33  1  0  0  0  0
 34 35  1  0  0  0  0
 34 53  1  0  0  0  0
 35 36  1  0  0  0  0
 35 52  2  0  0  0  0
 36 37  1  0  0  0  0
 36 51  1  0  0  0  0
 36 73  1  0  0  0  0
 37 38  1  0  0  0  0
 38 39  1  0  0  0  0
 39 40  1  0  0  0  0
 39 50  1  0  0  0  0
 40 41  1  0  0  0  0
 40 49  2  0  0  0  0
 41 42  1  0  0  0  0
 42 43  1  0  0  0  0
 43 44  1  0  0  0  0
 43 47  1  0  0  0  0
 43 48  1  0  0  0  0
 44 45  1  0  0  0  0
 44 46  1  0  0  0  0
 50 51  1  0  0  0  0
 55 56  1  0  0  0  0
 56 57  1  0  0  0  0
 56 61  1  0  0  0  0
 57 58  1  0  0  0  0
 58 59  1  0  0  0  0
 58 71  1  0  0  0  0
 59 60  1  0  0  0  0
 60 61  1  0  0  0  0
 63 64  1  0  0  0  0
 64 65  1  0  0  0  0
 67 68  4  0  0  0  0
 67 72  4  0  0  0  0
 68 69  4  0  0  0  0
 69 70  4  0  0  0  0
 70 71  4  0  0  0  0
 71 72  4  0  0  0  0
M  END
$$$$
