mol_ETKDG5_291
  PyMOL3.1          3D                             0

 73 79  0  0  0  0  0  0  0  0999 V2000
   -3.2473   -0.5153   -6.2072 C   0  0  0  0  0  0  0  0  0  0  0  0
   -1.9753    0.2256   -6.2193 C   0  0  0  0  0  0  0  0  0  0  0  0
   -0.9604   -0.2911   -7.0550 O   0  0  0  0  0  0  0  0  0  0  0  0
   -0.3549   -1.4998   -6.6740 C   0  0  0  0  0  0  0  0  0  0  0  0
   -2.1425    1.6414   -6.5648 C   0  0  0  0  0  0  0  0  0  0  0  0
   -2.3067    1.9521   -7.8382 N   0  0  0  0  0  0  0  0  0  0  0  0
   -2.5060    3.2292   -8.2239 C   0  0  0  0  0  0  0  0  0  0  0  0
   -2.5610    4.2759   -7.2998 C   0  0  0  0  0  0  0  0  0  0  0  0
   -2.4042    3.9647   -5.9446 C   0  0  0  0  0  0  0  0  0  0  0  0
   -2.1684    2.6269   -5.5911 C   0  0  0  0  0  0  0  0  0  0  0  0
   -1.9588    2.3147   -4.1974 C   0  0  0  0  0  0  0  0  0  0  0  0
   -2.9643    2.2232   -3.2978 N   0  0  0  0  0  0  0  0  0  0  0  0
   -4.4355    2.3489   -3.5648 C   0  0  0  0  0  0  0  0  0  0  0  0
   -5.0569    3.5238   -2.9863 C   0  0  0  0  0  0  0  0  0  0  0  0
   -0.7186    1.9907   -3.5869 C   0  0  0  0  0  0  0  0  0  0  0  0
    0.6573    1.8341   -4.1863 C   0  0  0  0  0  0  0  0  0  0  0  0
    1.5293    3.1578   -4.1591 C   0  0  0  0  0  0  0  0  0  0  0  0
    2.8004    2.8868   -4.9419 C   0  0  0  0  0  0  0  0  0  0  0  0
    0.8757    4.2861   -4.8698 C   0  0  0  0  0  0  0  0  0  0  0  0
    1.8142    3.5684   -2.7225 C   0  0  0  0  0  0  0  0  0  0  0  0
    3.0035    2.9355   -2.0503 O   0  0  0  0  0  0  0  0  0  0  0  0
    4.1436    3.6702   -1.6047 C   0  0  0  0  0  0  0  0  0  0  0  0
    5.1890    2.9566   -0.7679 C   0  0  0  0  0  0  0  0  0  0  0  0
    5.1192    1.5379   -0.9519 N   0  0  0  0  0  0  0  0  0  0  0  0
    6.0526    0.7544   -0.2770 N   0  0  0  0  0  0  0  0  0  0  0  0
    5.6716   -0.2923    0.5144 C   0  0  0  0  0  0  0  0  0  0  0  0
    4.2221   -0.6317    0.6090 C   0  0  0  0  0  0  0  0  0  0  0  0
    4.0045   -2.0560    0.6464 N   0  0  0  0  0  0  0  0  0  0  0  0
    3.6306   -2.7594   -0.4200 C   0  0  0  0  0  0  0  0  0  0  0  0
    3.2514   -4.1791   -0.1980 C   0  0  0  0  0  0  0  0  0  0  0  0
    4.3357   -5.2469   -0.4938 C   0  0  0  0  0  0  0  0  0  0  0  0
    4.0692   -6.5437    0.1915 C   0  0  0  0  0  0  0  0  0  0  0  0
    5.7388   -4.7797   -0.3814 C   0  0  0  0  0  0  0  0  0  0  0  0
    2.0494   -4.3875   -0.9916 N   0  0  0  0  0  0  0  0  0  0  0  0
    0.8605   -3.9955   -0.4377 C   0  0  0  0  0  0  0  0  0  0  0  0
   -0.4680   -4.0353   -1.1415 C   0  0  0  0  0  0  0  0  0  0  0  0
   -1.6339   -4.0480   -0.1543 C   0  0  0  0  0  0  0  0  0  0  0  0
   -2.9359   -3.9514   -0.8816 C   0  0  0  0  0  0  0  0  0  0  0  0
   -2.9264   -2.7880   -1.7810 N   0  0  0  0  0  0  0  0  0  0  0  0
   -3.8778   -1.8153   -1.7174 C   0  0  0  0  0  0  0  0  0  0  0  0
   -4.5495   -1.5443   -0.5404 C   0  0  0  0  0  0  0  0  0  0  0  0
   -5.1843   -1.2571    0.3891 C   0  0  0  0  0  0  0  0  0  0  0  0
   -5.8737   -1.0051    1.5904 C   0  0  0  0  0  0  0  0  0  0  0  0
   -7.2419   -1.3574    1.4445 N   0  0  0  0  0  0  0  0  0  0  0  0
   -7.6698   -2.6719    1.7035 C   0  0  0  0  0  0  0  0  0  0  0  0
   -8.1241   -0.5097    0.7362 C   0  0  0  0  0  0  0  0  0  0  0  0
   -5.2275   -1.7942    2.7175 C   0  0  0  0  0  0  0  0  0  0  0  0
   -5.7488    0.4473    1.9939 C   0  0  0  0  0  0  0  0  0  0  0  0
   -4.1083   -1.1043   -2.7029 O   0  0  0  0  0  0  0  0  0  0  0  0
   -1.8393   -2.6973   -2.7166 C   0  0  0  0  0  0  0  0  0  0  0  0
   -0.5358   -2.7714   -1.9884 C   0  0  0  0  0  0  0  0  0  0  0  0
    0.8882   -3.5409    0.7229 O   0  0  0  0  0  0  0  0  0  0  0  0
    2.1803   -4.8741   -2.3761 C   0  0  0  0  0  0  0  0  0  0  0  0
    3.4892   -2.1891   -1.4915 O   0  0  0  0  0  0  0  0  0  0  0  0
    3.5696    0.0164    1.8802 C   0  0  0  0  0  0  0  0  0  0  0  0
    2.0362   -0.1964    1.9787 C   0  0  0  0  0  0  0  0  0  0  0  0
    1.3930    0.7631    1.0348 C   0  0  0  0  0  0  0  0  0  0  0  0
   -0.0431    0.7520    1.1501 N   0  0  0  0  0  0  0  0  0  0  0  0
   -0.5495    0.8994    2.5247 C   0  0  0  0  0  0  0  0  0  0  0  0
    0.1979   -0.0202    3.4940 C   0  0  0  0  0  0  0  0  0  0  0  0
    1.6499    0.1142    3.3375 O   0  0  0  0  0  0  0  0  0  0  0  0
    6.4912   -0.9474    1.1781 O   0  0  0  0  0  0  0  0  0  0  0  0
    7.4540    1.0715   -0.5264 C   0  0  0  0  0  0  0  0  0  0  0  0
    7.6718    2.5854   -0.3484 C   0  0  0  0  0  0  0  0  0  0  0  0
    6.6401    3.4123   -1.1090 C   0  0  0  0  0  0  0  0  0  0  0  0
    4.3558    4.8779   -1.8639 O   0  0  0  0  0  0  0  0  0  0  0  0
   -1.0557    1.7515   -2.2466 C   0  0  0  0  0  0  0  0  0  0  0  0
   -2.4294    1.9016   -2.1142 C   0  0  0  0  0  0  0  0  0  0  0  0
   -3.0290    1.6871   -0.8386 C   0  0  0  0  0  0  0  0  0  0  0  0
   -2.2002    1.2990    0.2056 C   0  0  0  0  0  0  0  0  0  0  0  0
   -0.8290    1.1413    0.0573 C   0  0  0  0  0  0  0  0  0  0  0  0
   -0.2286    1.3635   -1.1915 C   0  0  0  0  0  0  0  0  0  0  0  0
   -0.5943   -5.1599   -1.9204 F   0  0  0  0  0  0  0  0  0  0  0  0
  1  2  1  0  0  0  0
  2  3  1  0  0  0  0
  2  5  1  0  0  0  0
  3  4  1  0  0  0  0
  5  6  4  0  0  0  0
  5 10  4  0  0  0  0
  6  7  4  0  0  0  0
  7  8  4  0  0  0  0
  8  9  4  0  0  0  0
  9 10  4  0  0  0  0
 10 11  1  0  0  0  0
 11 12  4  0  0  0  0
 11 15  4  0  0  0  0
 12 13  1  0  0  0  0
 12 68  4  0  0  0  0
 13 14  1  0  0  0  0
 15 16  1  0  0  0  0
 15 67  4  0  0  0  0
 16 17  1  0  0  0  0
 17 18  1  0  0  0  0
 17 19  1  0  0  0  0
 17 20  1  0  0  0  0
 20 21  1  0  0  0  0
 21 22  1  0  0  0  0
 22 23  1  0  0  0  0
 22 66  2  0  0  0  0
 23 24  1  0  0  0  0
 23 65  1  0  0  0  0
 24 25  1  0  0  0  0
 25 26  1  0  0  0  0
 25 63  1  0  0  0  0
 26 27  1  0  0  0  0
 26 62  2  0  0  0  0
 27 28  1  0  0  0  0
 27 55  1  0  0  0  0
 28 29  1  0  0  0  0
 29 30  1  0  0  0  0
 29 54  2  0  0  0  0
 30 31  1  0  0  0  0
 30 34  1  0  0  0  0
 31 32  1  0  0  0  0
 31 33  1  0  0  0  0
 34 35  1  0  0  0  0
 34 53  1  0  0  0  0
 35 36  1  0  0  0  0
 35 52  2  0  0  0  0
 36 37  1  0  0  0  0
 36 51  1  0  0  0  0
 36 73  1  0  0  0  0
 37 38  1  0  0  0  0
 38 39  1  0  0  0  0
 39 40  1  0  0  0  0
 39 50  1  0  0  0  0
 40 41  1  0  0  0  0
 40 49  2  0  0  0  0
 41 42  1  0  0  0  0
 42 43  1  0  0  0  0
 43 44  1  0  0  0  0
 43 47  1  0  0  0  0
 43 48  1  0  0  0  0
 44 45  1  0  0  0  0
 44 46  1  0  0  0  0
 50 51  1  0  0  0  0
 55 56  1  0  0  0  0
 56 57  1  0  0  0  0
 56 61  1  0  0  0  0
 57 58  1  0  0  0  0
 58 59  1  0  0  0  0
 58 71  1  0  0  0  0
 59 60  1  0  0  0  0
 60 61  1  0  0  0  0
 63 64  1  0  0  0  0
 64 65  1  0  0  0  0
 67 68  4  0  0  0  0
 67 72  4  0  0  0  0
 68 69  4  0  0  0  0
 69 70  4  0  0  0  0
 70 71  4  0  0  0  0
 71 72  4  0  0  0  0
M  END
$$$$
