mol_ETKDG2_128
  PyMOL3.1          3D                             0

 73 79  0  0  0  0  0  0  0  0999 V2000
   -4.5918   -0.3642    4.8022 C   0  0  0  0  0  0  0  0  0  0  0  0
   -3.7081   -1.4820    4.3900 C   0  0  0  0  0  0  0  0  0  0  0  0
   -4.3572   -2.5594    3.7579 O   0  0  0  0  0  0  0  0  0  0  0  0
   -4.9414   -2.3378    2.4914 C   0  0  0  0  0  0  0  0  0  0  0  0
   -2.9187   -2.0359    5.5170 C   0  0  0  0  0  0  0  0  0  0  0  0
   -3.5596   -2.7566    6.4279 N   0  0  0  0  0  0  0  0  0  0  0  0
   -2.9285   -3.2361    7.5238 C   0  0  0  0  0  0  0  0  0  0  0  0
   -1.5697   -2.9850    7.7561 C   0  0  0  0  0  0  0  0  0  0  0  0
   -0.8671   -2.2113    6.8124 C   0  0  0  0  0  0  0  0  0  0  0  0
   -1.5519   -1.7625    5.6647 C   0  0  0  0  0  0  0  0  0  0  0  0
   -0.8086   -1.0153    4.6623 C   0  0  0  0  0  0  0  0  0  0  0  0
   -0.5995    0.3336    4.7283 N   0  0  0  0  0  0  0  0  0  0  0  0
   -1.0762    1.2914    5.7961 C   0  0  0  0  0  0  0  0  0  0  0  0
    0.0016    1.7068    6.7101 C   0  0  0  0  0  0  0  0  0  0  0  0
   -0.2630   -1.5535    3.4543 C   0  0  0  0  0  0  0  0  0  0  0  0
   -0.3150   -2.9559    2.8624 C   0  0  0  0  0  0  0  0  0  0  0  0
    0.8825   -3.9504    3.2588 C   0  0  0  0  0  0  0  0  0  0  0  0
    0.5511   -5.3240    2.6817 C   0  0  0  0  0  0  0  0  0  0  0  0
    0.9737   -4.1792    4.7275 C   0  0  0  0  0  0  0  0  0  0  0  0
    2.2446   -3.4824    2.7363 C   0  0  0  0  0  0  0  0  0  0  0  0
    2.6027   -3.8317    1.3023 O   0  0  0  0  0  0  0  0  0  0  0  0
    3.9038   -4.2954    0.8761 C   0  0  0  0  0  0  0  0  0  0  0  0
    4.1914   -4.5166   -0.6135 C   0  0  0  0  0  0  0  0  0  0  0  0
    2.9914   -4.4626   -1.3957 N   0  0  0  0  0  0  0  0  0  0  0  0
    3.1033   -4.6355   -2.7805 N   0  0  0  0  0  0  0  0  0  0  0  0
    2.6067   -3.6982   -3.6590 C   0  0  0  0  0  0  0  0  0  0  0  0
    1.9319   -2.4727   -3.1013 C   0  0  0  0  0  0  0  0  0  0  0  0
    0.8141   -2.0310   -3.9148 N   0  0  0  0  0  0  0  0  0  0  0  0
   -0.4854   -2.2710   -3.5934 C   0  0  0  0  0  0  0  0  0  0  0  0
   -1.5136   -1.5743   -4.4337 C   0  0  0  0  0  0  0  0  0  0  0  0
   -2.1962   -2.4433   -5.5373 C   0  0  0  0  0  0  0  0  0  0  0  0
   -2.9012   -1.6299   -6.5812 C   0  0  0  0  0  0  0  0  0  0  0  0
   -1.3413   -3.5231   -6.1068 C   0  0  0  0  0  0  0  0  0  0  0  0
   -2.4903   -0.9820   -3.5019 N   0  0  0  0  0  0  0  0  0  0  0  0
   -2.1903    0.2341   -2.9117 C   0  0  0  0  0  0  0  0  0  0  0  0
   -3.0535    0.9621   -1.8938 C   0  0  0  0  0  0  0  0  0  0  0  0
   -2.6588    2.4422   -1.7273 C   0  0  0  0  0  0  0  0  0  0  0  0
   -3.4297    3.1003   -0.6128 C   0  0  0  0  0  0  0  0  0  0  0  0
   -3.3345    2.3080    0.6331 N   0  0  0  0  0  0  0  0  0  0  0  0
   -2.9371    2.8336    1.8497 C   0  0  0  0  0  0  0  0  0  0  0  0
   -2.3533    4.0889    1.9433 C   0  0  0  0  0  0  0  0  0  0  0  0
   -1.9245    5.1575    2.1264 C   0  0  0  0  0  0  0  0  0  0  0  0
   -1.4479    6.4928    2.1510 C   0  0  0  0  0  0  0  0  0  0  0  0
   -2.4342    7.3422    2.7484 N   0  0  0  0  0  0  0  0  0  0  0  0
   -2.5299    7.4476    4.1583 C   0  0  0  0  0  0  0  0  0  0  0  0
   -3.4618    7.9408    1.9876 C   0  0  0  0  0  0  0  0  0  0  0  0
   -1.1336    6.9416    0.7334 C   0  0  0  0  0  0  0  0  0  0  0  0
   -0.1358    6.5942    2.9139 C   0  0  0  0  0  0  0  0  0  0  0  0
   -3.0557    2.1630    2.8947 O   0  0  0  0  0  0  0  0  0  0  0  0
   -3.6609    0.9089    0.5277 C   0  0  0  0  0  0  0  0  0  0  0  0
   -2.8527    0.2542   -0.5561 C   0  0  0  0  0  0  0  0  0  0  0  0
   -1.1011    0.7639   -3.2342 O   0  0  0  0  0  0  0  0  0  0  0  0
   -3.6970   -1.7579   -3.1400 C   0  0  0  0  0  0  0  0  0  0  0  0
   -0.7677   -2.9103   -2.5958 O   0  0  0  0  0  0  0  0  0  0  0  0
    2.9808   -1.2860   -2.9757 C   0  0  0  0  0  0  0  0  0  0  0  0
    2.4232    0.0154   -2.3155 C   0  0  0  0  0  0  0  0  0  0  0  0
    2.4163   -0.1834   -0.8300 C   0  0  0  0  0  0  0  0  0  0  0  0
    2.0149    1.0164   -0.1164 N   0  0  0  0  0  0  0  0  0  0  0  0
    2.7358    2.2423   -0.5071 C   0  0  0  0  0  0  0  0  0  0  0  0
    2.8373    2.3693   -2.0394 C   0  0  0  0  0  0  0  0  0  0  0  0
    3.3074    1.1153   -2.6503 O   0  0  0  0  0  0  0  0  0  0  0  0
    2.7405   -3.8216   -4.8910 O   0  0  0  0  0  0  0  0  0  0  0  0
    3.7180   -5.9017   -3.2040 C   0  0  0  0  0  0  0  0  0  0  0  0
    5.0438   -6.1092   -2.4307 C   0  0  0  0  0  0  0  0  0  0  0  0
    4.8974   -5.8813   -0.9108 C   0  0  0  0  0  0  0  0  0  0  0  0
    4.8349   -4.5255    1.6731 O   0  0  0  0  0  0  0  0  0  0  0  0
    0.3110   -0.4252    2.8235 C   0  0  0  0  0  0  0  0  0  0  0  0
    0.0882    0.6985    3.6324 C   0  0  0  0  0  0  0  0  0  0  0  0
    0.5524    1.9888    3.1853 C   0  0  0  0  0  0  0  0  0  0  0  0
    1.1766    2.0517    1.9292 C   0  0  0  0  0  0  0  0  0  0  0  0
    1.3846    0.9125    1.1357 C   0  0  0  0  0  0  0  0  0  0  0  0
    0.9473   -0.3473    1.5883 C   0  0  0  0  0  0  0  0  0  0  0  0
   -4.3902    0.9432   -2.2752 F   0  0  0  0  0  0  0  0  0  0  0  0
  1  2  1  0  0  0  0
  2  3  1  0  0  0  0
  2  5  1  0  0  0  0
  3  4  1  0  0  0  0
  5  6  4  0  0  0  0
  5 10  4  0  0  0  0
  6  7  4  0  0  0  0
  7  8  4  0  0  0  0
  8  9  4  0  0  0  0
  9 10  4  0  0  0  0
 10 11  1  0  0  0  0
 11 12  4  0  0  0  0
 11 15  4  0  0  0  0
 12 13  1  0  0  0  0
 12 68  4  0  0  0  0
 13 14  1  0  0  0  0
 15 16  1  0  0  0  0
 15 67  4  0  0  0  0
 16 17  1  0  0  0  0
 17 18  1  0  0  0  0
 17 19  1  0  0  0  0
 17 20  1  0  0  0  0
 20 21  1  0  0  0  0
 21 22  1  0  0  0  0
 22 23  1  0  0  0  0
 22 66  2  0  0  0  0
 23 24  1  0  0  0  0
 23 65  1  0  0  0  0
 24 25  1  0  0  0  0
 25 26  1  0  0  0  0
 25 63  1  0  0  0  0
 26 27  1  0  0  0  0
 26 62  2  0  0  0  0
 27 28  1  0  0  0  0
 27 55  1  0  0  0  0
 28 29  1  0  0  0  0
 29 30  1  0  0  0  0
 29 54  2  0  0  0  0
 30 31  1  0  0  0  0
 30 34  1  0  0  0  0
 31 32  1  0  0  0  0
 31 33  1  0  0  0  0
 34 35  1  0  0  0  0
 34 53  1  0  0  0  0
 35 36  1  0  0  0  0
 35 52  2  0  0  0  0
 36 37  1  0  0  0  0
 36 51  1  0  0  0  0
 36 73  1  0  0  0  0
 37 38  1  0  0  0  0
 38 39  1  0  0  0  0
 39 40  1  0  0  0  0
 39 50  1  0  0  0  0
 40 41  1  0  0  0  0
 40 49  2  0  0  0  0
 41 42  1  0  0  0  0
 42 43  1  0  0  0  0
 43 44  1  0  0  0  0
 43 47  1  0  0  0  0
 43 48  1  0  0  0  0
 44 45  1  0  0  0  0
 44 46  1  0  0  0  0
 50 51  1  0  0  0  0
 55 56  1  0  0  0  0
 56 57  1  0  0  0  0
 56 61  1  0  0  0  0
 57 58  1  0  0  0  0
 58 59  1  0  0  0  0
 58 71  1  0  0  0  0
 59 60  1  0  0  0  0
 60 61  1  0  0  0  0
 63 64  1  0  0  0  0
 64 65  1  0  0  0  0
 67 68  4  0  0  0  0
 67 72  4  0  0  0  0
 68 69  4  0  0  0  0
 69 70  4  0  0  0  0
 70 71  4  0  0  0  0
 71 72  4  0  0  0  0
M  END
$$$$
