mol_ETKDG4_248
  PyMOL3.1          3D                             0

 73 79  0  0  0  0  0  0  0  0999 V2000
   -2.0483    1.6334   -1.0049 C   0  0  0  0  0  0  0  0  0  0  0  0
   -2.1875    1.9174    0.4396 C   0  0  0  0  0  0  0  0  0  0  0  0
   -1.3351    2.9067    0.9571 O   0  0  0  0  0  0  0  0  0  0  0  0
    0.0402    2.6044    1.0349 C   0  0  0  0  0  0  0  0  0  0  0  0
   -3.5557    2.3121    0.8140 C   0  0  0  0  0  0  0  0  0  0  0  0
   -3.9774    3.5050    0.4485 N   0  0  0  0  0  0  0  0  0  0  0  0
   -5.2340    3.9149    0.7223 C   0  0  0  0  0  0  0  0  0  0  0  0
   -6.1454    3.0880    1.3883 C   0  0  0  0  0  0  0  0  0  0  0  0
   -5.7176    1.8119    1.7715 C   0  0  0  0  0  0  0  0  0  0  0  0
   -4.3952    1.4476    1.4987 C   0  0  0  0  0  0  0  0  0  0  0  0
   -3.9473    0.1465    1.9232 C   0  0  0  0  0  0  0  0  0  0  0  0
   -4.1079   -0.9633    1.1672 N   0  0  0  0  0  0  0  0  0  0  0  0
   -4.7485   -1.0712   -0.1924 C   0  0  0  0  0  0  0  0  0  0  0  0
   -6.0913   -1.6583   -0.1504 C   0  0  0  0  0  0  0  0  0  0  0  0
   -3.2141   -0.1404    3.1035 C   0  0  0  0  0  0  0  0  0  0  0  0
   -2.6817    0.7530    4.1898 C   0  0  0  0  0  0  0  0  0  0  0  0
   -3.6384    1.0670    5.4195 C   0  0  0  0  0  0  0  0  0  0  0  0
   -4.8208    1.9257    5.0472 C   0  0  0  0  0  0  0  0  0  0  0  0
   -2.8499    1.9045    6.3793 C   0  0  0  0  0  0  0  0  0  0  0  0
   -4.1514   -0.1657    6.1231 C   0  0  0  0  0  0  0  0  0  0  0  0
   -3.2701   -0.6937    7.2200 O   0  0  0  0  0  0  0  0  0  0  0  0
   -3.7416   -1.3851    8.3750 C   0  0  0  0  0  0  0  0  0  0  0  0
   -2.7425   -1.8813    9.3935 C   0  0  0  0  0  0  0  0  0  0  0  0
   -1.4303   -1.4925    9.0077 N   0  0  0  0  0  0  0  0  0  0  0  0
   -0.3816   -1.8403    9.8418 N   0  0  0  0  0  0  0  0  0  0  0  0
    0.6930   -2.5226    9.3477 C   0  0  0  0  0  0  0  0  0  0  0  0
    0.6999   -2.8782    7.8955 C   0  0  0  0  0  0  0  0  0  0  0  0
    1.9943   -2.6813    7.2928 N   0  0  0  0  0  0  0  0  0  0  0  0
    2.2703   -1.6248    6.5146 C   0  0  0  0  0  0  0  0  0  0  0  0
    3.5969   -1.6401    5.8381 C   0  0  0  0  0  0  0  0  0  0  0  0
    4.6712   -0.7118    6.4939 C   0  0  0  0  0  0  0  0  0  0  0  0
    6.0649   -1.1176    6.1281 C   0  0  0  0  0  0  0  0  0  0  0  0
    4.4867   -0.5178    7.9584 C   0  0  0  0  0  0  0  0  0  0  0  0
    3.3415   -1.3011    4.4357 N   0  0  0  0  0  0  0  0  0  0  0  0
    2.9245   -2.3015    3.5921 C   0  0  0  0  0  0  0  0  0  0  0  0
    2.5263   -2.1110    2.1532 C   0  0  0  0  0  0  0  0  0  0  0  0
    2.5036   -3.4248    1.3607 C   0  0  0  0  0  0  0  0  0  0  0  0
    1.9777   -3.2193   -0.0149 C   0  0  0  0  0  0  0  0  0  0  0  0
    0.7061   -2.4747   -0.0039 N   0  0  0  0  0  0  0  0  0  0  0  0
   -0.4038   -2.8637   -0.6879 C   0  0  0  0  0  0  0  0  0  0  0  0
   -0.5791   -4.1574   -1.1388 C   0  0  0  0  0  0  0  0  0  0  0  0
   -0.8426   -5.1784   -1.6086 C   0  0  0  0  0  0  0  0  0  0  0  0
   -1.0437   -6.4696   -2.1245 C   0  0  0  0  0  0  0  0  0  0  0  0
   -1.5335   -6.3888   -3.4610 N   0  0  0  0  0  0  0  0  0  0  0  0
   -0.6362   -6.1376   -4.5230 C   0  0  0  0  0  0  0  0  0  0  0  0
   -2.9032   -6.2761   -3.7402 C   0  0  0  0  0  0  0  0  0  0  0  0
   -2.0067   -7.2361   -1.2421 C   0  0  0  0  0  0  0  0  0  0  0  0
    0.2667   -7.2450   -2.0944 C   0  0  0  0  0  0  0  0  0  0  0  0
   -1.3100   -2.0384   -0.8777 O   0  0  0  0  0  0  0  0  0  0  0  0
    0.6562   -1.2811    0.7798 C   0  0  0  0  0  0  0  0  0  0  0  0
    1.1214   -1.5295    2.1652 C   0  0  0  0  0  0  0  0  0  0  0  0
    2.8398   -3.4510    4.0655 O   0  0  0  0  0  0  0  0  0  0  0  0
    3.4367    0.1072    4.0136 C   0  0  0  0  0  0  0  0  0  0  0  0
    1.4199   -0.7805    6.2809 O   0  0  0  0  0  0  0  0  0  0  0  0
    0.2344   -4.3651    7.6874 C   0  0  0  0  0  0  0  0  0  0  0  0
    0.0838   -4.7895    6.2045 C   0  0  0  0  0  0  0  0  0  0  0  0
   -1.1429   -4.1382    5.6757 C   0  0  0  0  0  0  0  0  0  0  0  0
   -1.4492   -4.5710    4.3389 N   0  0  0  0  0  0  0  0  0  0  0  0
   -1.4930   -6.0252    4.1474 C   0  0  0  0  0  0  0  0  0  0  0  0
   -0.2745   -6.6944    4.7954 C   0  0  0  0  0  0  0  0  0  0  0  0
   -0.0847   -6.2269    6.1773 O   0  0  0  0  0  0  0  0  0  0  0  0
    1.6342   -2.8774   10.0729 O   0  0  0  0  0  0  0  0  0  0  0  0
   -0.4868   -1.3717   11.2221 C   0  0  0  0  0  0  0  0  0  0  0  0
   -1.8764   -1.7392   11.7847 C   0  0  0  0  0  0  0  0  0  0  0  0
   -3.0187   -1.3508   10.8301 C   0  0  0  0  0  0  0  0  0  0  0  0
   -4.9342   -1.6183    8.6166 O   0  0  0  0  0  0  0  0  0  0  0  0
   -2.9847   -1.5252    3.0063 C   0  0  0  0  0  0  0  0  0  0  0  0
   -3.5428   -1.9818    1.8160 C   0  0  0  0  0  0  0  0  0  0  0  0
   -3.4202   -3.3596    1.4547 C   0  0  0  0  0  0  0  0  0  0  0  0
   -2.7056   -4.1763    2.3155 C   0  0  0  0  0  0  0  0  0  0  0  0
   -2.1514   -3.7059    3.5015 C   0  0  0  0  0  0  0  0  0  0  0  0
   -2.2805   -2.3538    3.8599 C   0  0  0  0  0  0  0  0  0  0  0  0
    3.4001   -1.2658    1.5025 F   0  0  0  0  0  0  0  0  0  0  0  0
  1  2  1  0  0  0  0
  2  3  1  0  0  0  0
  2  5  1  0  0  0  0
  3  4  1  0  0  0  0
  5  6  4  0  0  0  0
  5 10  4  0  0  0  0
  6  7  4  0  0  0  0
  7  8  4  0  0  0  0
  8  9  4  0  0  0  0
  9 10  4  0  0  0  0
 10 11  1  0  0  0  0
 11 12  4  0  0  0  0
 11 15  4  0  0  0  0
 12 13  1  0  0  0  0
 12 68  4  0  0  0  0
 13 14  1  0  0  0  0
 15 16  1  0  0  0  0
 15 67  4  0  0  0  0
 16 17  1  0  0  0  0
 17 18  1  0  0  0  0
 17 19  1  0  0  0  0
 17 20  1  0  0  0  0
 20 21  1  0  0  0  0
 21 22  1  0  0  0  0
 22 23  1  0  0  0  0
 22 66  2  0  0  0  0
 23 24  1  0  0  0  0
 23 65  1  0  0  0  0
 24 25  1  0  0  0  0
 25 26  1  0  0  0  0
 25 63  1  0  0  0  0
 26 27  1  0  0  0  0
 26 62  2  0  0  0  0
 27 28  1  0  0  0  0
 27 55  1  0  0  0  0
 28 29  1  0  0  0  0
 29 30  1  0  0  0  0
 29 54  2  0  0  0  0
 30 31  1  0  0  0  0
 30 34  1  0  0  0  0
 31 32  1  0  0  0  0
 31 33  1  0  0  0  0
 34 35  1  0  0  0  0
 34 53  1  0  0  0  0
 35 36  1  0  0  0  0
 35 52  2  0  0  0  0
 36 37  1  0  0  0  0
 36 51  1  0  0  0  0
 36 73  1  0  0  0  0
 37 38  1  0  0  0  0
 38 39  1  0  0  0  0
 39 40  1  0  0  0  0
 39 50  1  0  0  0  0
 40 41  1  0  0  0  0
 40 49  2  0  0  0  0
 41 42  1  0  0  0  0
 42 43  1  0  0  0  0
 43 44  1  0  0  0  0
 43 47  1  0  0  0  0
 43 48  1  0  0  0  0
 44 45  1  0  0  0  0
 44 46  1  0  0  0  0
 50 51  1  0  0  0  0
 55 56  1  0  0  0  0
 56 57  1  0  0  0  0
 56 61  1  0  0  0  0
 57 58  1  0  0  0  0
 58 59  1  0  0  0  0
 58 71  1  0  0  0  0
 59 60  1  0  0  0  0
 60 61  1  0  0  0  0
 63 64  1  0  0  0  0
 64 65  1  0  0  0  0
 67 68  4  0  0  0  0
 67 72  4  0  0  0  0
 68 69  4  0  0  0  0
 69 70  4  0  0  0  0
 70 71  4  0  0  0  0
 71 72  4  0  0  0  0
M  END
$$$$
