mol_ETKDG3_187
  PyMOL3.1          3D                             0

 73 79  0  0  0  0  0  0  0  0999 V2000
   -0.0952   -0.8663   -7.3940 C   0  0  0  0  0  0  0  0  0  0  0  0
    0.5233   -1.3752   -6.1390 C   0  0  0  0  0  0  0  0  0  0  0  0
    0.9440   -2.7312   -6.2318 O   0  0  0  0  0  0  0  0  0  0  0  0
   -0.0461   -3.7279   -6.3218 C   0  0  0  0  0  0  0  0  0  0  0  0
    1.7101   -0.5571   -5.6986 C   0  0  0  0  0  0  0  0  0  0  0  0
    2.7906   -0.5980   -6.4646 N   0  0  0  0  0  0  0  0  0  0  0  0
    3.8890    0.1316   -6.1708 C   0  0  0  0  0  0  0  0  0  0  0  0
    3.9413    0.9716   -5.0550 C   0  0  0  0  0  0  0  0  0  0  0  0
    2.8141    1.0292   -4.2324 C   0  0  0  0  0  0  0  0  0  0  0  0
    1.7008    0.2530   -4.5565 C   0  0  0  0  0  0  0  0  0  0  0  0
    0.5659    0.2835   -3.6684 C   0  0  0  0  0  0  0  0  0  0  0  0
   -0.5435    1.0228   -3.8866 N   0  0  0  0  0  0  0  0  0  0  0  0
   -0.7795    1.9974   -4.9983 C   0  0  0  0  0  0  0  0  0  0  0  0
   -1.8595    1.6444   -5.9085 C   0  0  0  0  0  0  0  0  0  0  0  0
    0.4552   -0.4197   -2.4365 C   0  0  0  0  0  0  0  0  0  0  0  0
    1.4605   -1.1789   -1.6241 C   0  0  0  0  0  0  0  0  0  0  0  0
    1.7120   -2.6967   -1.8957 C   0  0  0  0  0  0  0  0  0  0  0  0
    2.3211   -2.9485   -3.2554 C   0  0  0  0  0  0  0  0  0  0  0  0
    2.7653   -3.1480   -0.9135 C   0  0  0  0  0  0  0  0  0  0  0  0
    0.4428   -3.5180   -1.7369 C   0  0  0  0  0  0  0  0  0  0  0  0
    0.1665   -3.9704   -0.3185 O   0  0  0  0  0  0  0  0  0  0  0  0
   -0.1729   -5.3080    0.0484 C   0  0  0  0  0  0  0  0  0  0  0  0
   -0.4290   -5.6325    1.5117 C   0  0  0  0  0  0  0  0  0  0  0  0
    0.1169   -4.6026    2.3524 N   0  0  0  0  0  0  0  0  0  0  0  0
    0.0132   -4.7728    3.7283 N   0  0  0  0  0  0  0  0  0  0  0  0
   -0.5457   -3.8127    4.5142 C   0  0  0  0  0  0  0  0  0  0  0  0
   -1.0414   -2.5491    3.8723 C   0  0  0  0  0  0  0  0  0  0  0  0
   -0.8354   -1.4126    4.7373 N   0  0  0  0  0  0  0  0  0  0  0  0
    0.1408   -0.5157    4.5631 C   0  0  0  0  0  0  0  0  0  0  0  0
    0.0865    0.6970    5.4292 C   0  0  0  0  0  0  0  0  0  0  0  0
    1.0027    0.7010    6.6688 C   0  0  0  0  0  0  0  0  0  0  0  0
    0.5668    1.6355    7.7391 C   0  0  0  0  0  0  0  0  0  0  0  0
    1.4760   -0.6174    7.1341 C   0  0  0  0  0  0  0  0  0  0  0  0
    0.3128    1.8526    4.5584 N   0  0  0  0  0  0  0  0  0  0  0  0
   -0.7252    2.2737    3.7701 C   0  0  0  0  0  0  0  0  0  0  0  0
   -0.6762    3.3627    2.7256 C   0  0  0  0  0  0  0  0  0  0  0  0
    0.5031    3.1489    1.8049 C   0  0  0  0  0  0  0  0  0  0  0  0
    0.5699    4.1072    0.7090 C   0  0  0  0  0  0  0  0  0  0  0  0
   -0.6951    4.2344    0.0065 N   0  0  0  0  0  0  0  0  0  0  0  0
   -0.7398    4.4107   -1.3421 C   0  0  0  0  0  0  0  0  0  0  0  0
   -1.8451    5.0372   -1.8223 C   0  0  0  0  0  0  0  0  0  0  0  0
   -2.7113    5.6239   -2.2649 C   0  0  0  0  0  0  0  0  0  0  0  0
   -3.8610    6.3736   -2.5710 C   0  0  0  0  0  0  0  0  0  0  0  0
   -4.3721    6.1701   -3.8729 N   0  0  0  0  0  0  0  0  0  0  0  0
   -3.7170    5.3670   -4.8020 C   0  0  0  0  0  0  0  0  0  0  0  0
   -5.5522    6.7951   -4.2950 C   0  0  0  0  0  0  0  0  0  0  0  0
   -3.5072    7.8438   -2.3889 C   0  0  0  0  0  0  0  0  0  0  0  0
   -4.9648    6.0357   -1.5729 C   0  0  0  0  0  0  0  0  0  0  0  0
    0.1685    4.0735   -2.0963 O   0  0  0  0  0  0  0  0  0  0  0  0
   -1.8928    4.2114    0.7792 C   0  0  0  0  0  0  0  0  0  0  0  0
   -1.9355    3.2865    1.8513 C   0  0  0  0  0  0  0  0  0  0  0  0
   -1.8132    1.6963    3.9464 O   0  0  0  0  0  0  0  0  0  0  0  0
    1.6635    2.4297    4.4779 C   0  0  0  0  0  0  0  0  0  0  0  0
    0.9378   -0.6339    3.6378 O   0  0  0  0  0  0  0  0  0  0  0  0
   -2.5862   -2.6609    3.5413 C   0  0  0  0  0  0  0  0  0  0  0  0
   -3.1723   -1.4054    2.8282 C   0  0  0  0  0  0  0  0  0  0  0  0
   -2.8566   -1.5242    1.3863 C   0  0  0  0  0  0  0  0  0  0  0  0
   -3.4161   -0.4397    0.6137 N   0  0  0  0  0  0  0  0  0  0  0  0
   -4.8541   -0.2172    0.8195 C   0  0  0  0  0  0  0  0  0  0  0  0
   -5.2014   -0.2291    2.3162 C   0  0  0  0  0  0  0  0  0  0  0  0
   -4.6089   -1.3820    3.0076 O   0  0  0  0  0  0  0  0  0  0  0  0
   -0.6858   -3.9748    5.7378 O   0  0  0  0  0  0  0  0  0  0  0  0
    0.5919   -6.0037    4.2615 C   0  0  0  0  0  0  0  0  0  0  0  0
    0.0886   -7.2095    3.4470 C   0  0  0  0  0  0  0  0  0  0  0  0
    0.2122   -6.9893    1.9386 C   0  0  0  0  0  0  0  0  0  0  0  0
   -0.2864   -6.2475   -0.7646 O   0  0  0  0  0  0  0  0  0  0  0  0
   -0.8319   -0.1025   -1.9818 C   0  0  0  0  0  0  0  0  0  0  0  0
   -1.4045    0.7924   -2.8810 C   0  0  0  0  0  0  0  0  0  0  0  0
   -2.7037    1.3242   -2.5970 C   0  0  0  0  0  0  0  0  0  0  0  0
   -3.3436    0.8995   -1.4276 C   0  0  0  0  0  0  0  0  0  0  0  0
   -2.7561   -0.0166   -0.5466 C   0  0  0  0  0  0  0  0  0  0  0  0
   -1.4667   -0.5163   -0.8183 C   0  0  0  0  0  0  0  0  0  0  0  0
   -0.6252    4.6025    3.3308 F   0  0  0  0  0  0  0  0  0  0  0  0
  1  2  1  0  0  0  0
  2  3  1  0  0  0  0
  2  5  1  0  0  0  0
  3  4  1  0  0  0  0
  5  6  4  0  0  0  0
  5 10  4  0  0  0  0
  6  7  4  0  0  0  0
  7  8  4  0  0  0  0
  8  9  4  0  0  0  0
  9 10  4  0  0  0  0
 10 11  1  0  0  0  0
 11 12  4  0  0  0  0
 11 15  4  0  0  0  0
 12 13  1  0  0  0  0
 12 68  4  0  0  0  0
 13 14  1  0  0  0  0
 15 16  1  0  0  0  0
 15 67  4  0  0  0  0
 16 17  1  0  0  0  0
 17 18  1  0  0  0  0
 17 19  1  0  0  0  0
 17 20  1  0  0  0  0
 20 21  1  0  0  0  0
 21 22  1  0  0  0  0
 22 23  1  0  0  0  0
 22 66  2  0  0  0  0
 23 24  1  0  0  0  0
 23 65  1  0  0  0  0
 24 25  1  0  0  0  0
 25 26  1  0  0  0  0
 25 63  1  0  0  0  0
 26 27  1  0  0  0  0
 26 62  2  0  0  0  0
 27 28  1  0  0  0  0
 27 55  1  0  0  0  0
 28 29  1  0  0  0  0
 29 30  1  0  0  0  0
 29 54  2  0  0  0  0
 30 31  1  0  0  0  0
 30 34  1  0  0  0  0
 31 32  1  0  0  0  0
 31 33  1  0  0  0  0
 34 35  1  0  0  0  0
 34 53  1  0  0  0  0
 35 36  1  0  0  0  0
 35 52  2  0  0  0  0
 36 37  1  0  0  0  0
 36 51  1  0  0  0  0
 36 73  1  0  0  0  0
 37 38  1  0  0  0  0
 38 39  1  0  0  0  0
 39 40  1  0  0  0  0
 39 50  1  0  0  0  0
 40 41  1  0  0  0  0
 40 49  2  0  0  0  0
 41 42  1  0  0  0  0
 42 43  1  0  0  0  0
 43 44  1  0  0  0  0
 43 47  1  0  0  0  0
 43 48  1  0  0  0  0
 44 45  1  0  0  0  0
 44 46  1  0  0  0  0
 50 51  1  0  0  0  0
 55 56  1  0  0  0  0
 56 57  1  0  0  0  0
 56 61  1  0  0  0  0
 57 58  1  0  0  0  0
 58 59  1  0  0  0  0
 58 71  1  0  0  0  0
 59 60  1  0  0  0  0
 60 61  1  0  0  0  0
 63 64  1  0  0  0  0
 64 65  1  0  0  0  0
 67 68  4  0  0  0  0
 67 72  4  0  0  0  0
 68 69  4  0  0  0  0
 69 70  4  0  0  0  0
 70 71  4  0  0  0  0
 71 72  4  0  0  0  0
M  END
$$$$
