mol_ETKDG3_195
  PyMOL3.1          3D                             0

 73 79  0  0  0  0  0  0  0  0999 V2000
    2.7850    3.5148    0.6722 C   0  0  0  0  0  0  0  0  0  0  0  0
    1.3027    3.6156    0.7841 C   0  0  0  0  0  0  0  0  0  0  0  0
    0.7506    2.9571    1.8948 O   0  0  0  0  0  0  0  0  0  0  0  0
    0.7929    1.5495    1.9333 C   0  0  0  0  0  0  0  0  0  0  0  0
    0.8181    5.0184    0.8261 C   0  0  0  0  0  0  0  0  0  0  0  0
    1.1543    5.7509    1.8739 N   0  0  0  0  0  0  0  0  0  0  0  0
    0.7775    7.0440    1.9724 C   0  0  0  0  0  0  0  0  0  0  0  0
    0.0338    7.6716    0.9674 C   0  0  0  0  0  0  0  0  0  0  0  0
   -0.3221    6.9140   -0.1553 C   0  0  0  0  0  0  0  0  0  0  0  0
    0.0675    5.5801   -0.2116 C   0  0  0  0  0  0  0  0  0  0  0  0
   -0.3322    4.7958   -1.3632 C   0  0  0  0  0  0  0  0  0  0  0  0
    0.4684    4.5473   -2.4200 N   0  0  0  0  0  0  0  0  0  0  0  0
    1.8441    5.1014   -2.6674 C   0  0  0  0  0  0  0  0  0  0  0  0
    1.8217    6.2633   -3.5983 C   0  0  0  0  0  0  0  0  0  0  0  0
   -1.5705    4.1485   -1.5409 C   0  0  0  0  0  0  0  0  0  0  0  0
   -2.7547    4.3319   -0.7414 C   0  0  0  0  0  0  0  0  0  0  0  0
   -3.4598    3.3150    0.1014 C   0  0  0  0  0  0  0  0  0  0  0  0
   -3.4203    3.6748    1.5950 C   0  0  0  0  0  0  0  0  0  0  0  0
   -2.9609    1.9291   -0.0183 C   0  0  0  0  0  0  0  0  0  0  0  0
   -4.7997    3.4904   -0.3936 C   0  0  0  0  0  0  0  0  0  0  0  0
   -5.5702    2.4104   -1.0949 O   0  0  0  0  0  0  0  0  0  0  0  0
   -6.9606    2.5282   -1.3839 C   0  0  0  0  0  0  0  0  0  0  0  0
   -7.7056    1.3151   -1.8728 C   0  0  0  0  0  0  0  0  0  0  0  0
   -7.0099    0.1149   -1.5225 N   0  0  0  0  0  0  0  0  0  0  0  0
   -7.6068   -1.0954   -1.8412 N   0  0  0  0  0  0  0  0  0  0  0  0
   -6.9405   -2.0288   -2.5735 C   0  0  0  0  0  0  0  0  0  0  0  0
   -5.5553   -1.7112   -3.0412 C   0  0  0  0  0  0  0  0  0  0  0  0
   -4.6760   -2.8679   -2.9683 N   0  0  0  0  0  0  0  0  0  0  0  0
   -3.8406   -3.0802   -1.9407 C   0  0  0  0  0  0  0  0  0  0  0  0
   -2.8963   -4.2284   -2.0884 C   0  0  0  0  0  0  0  0  0  0  0  0
   -3.2671   -5.4872   -1.2279 C   0  0  0  0  0  0  0  0  0  0  0  0
   -2.3337   -6.6405   -1.4530 C   0  0  0  0  0  0  0  0  0  0  0  0
   -4.7040   -5.8943   -1.4075 C   0  0  0  0  0  0  0  0  0  0  0  0
   -1.5694   -3.6964   -1.7886 N   0  0  0  0  0  0  0  0  0  0  0  0
   -0.8528   -3.1217   -2.8063 C   0  0  0  0  0  0  0  0  0  0  0  0
    0.4824   -2.4573   -2.6385 C   0  0  0  0  0  0  0  0  0  0  0  0
    0.2293   -1.1129   -2.0050 C   0  0  0  0  0  0  0  0  0  0  0  0
    1.4877   -0.4130   -1.7436 C   0  0  0  0  0  0  0  0  0  0  0  0
    2.2547   -0.2909   -2.9789 N   0  0  0  0  0  0  0  0  0  0  0  0
    2.7671    0.9197   -3.2953 C   0  0  0  0  0  0  0  0  0  0  0  0
    3.3043    1.1935   -4.5377 C   0  0  0  0  0  0  0  0  0  0  0  0
    3.8375    1.5936   -5.4867 C   0  0  0  0  0  0  0  0  0  0  0  0
    4.4477    1.9545   -6.6877 C   0  0  0  0  0  0  0  0  0  0  0  0
    5.6407    2.7062   -6.4526 N   0  0  0  0  0  0  0  0  0  0  0  0
    6.2057    3.5146   -7.4362 C   0  0  0  0  0  0  0  0  0  0  0  0
    6.2605    2.7259   -5.1910 C   0  0  0  0  0  0  0  0  0  0  0  0
    4.7721    0.6852   -7.4858 C   0  0  0  0  0  0  0  0  0  0  0  0
    3.4762    2.7710   -7.5104 C   0  0  0  0  0  0  0  0  0  0  0  0
    2.7407    1.8291   -2.4605 O   0  0  0  0  0  0  0  0  0  0  0  0
    2.4415   -1.4736   -3.7751 C   0  0  0  0  0  0  0  0  0  0  0  0
    1.2183   -2.2481   -3.9724 C   0  0  0  0  0  0  0  0  0  0  0  0
   -1.3588   -3.1260   -3.9453 O   0  0  0  0  0  0  0  0  0  0  0  0
   -1.1056   -3.6891   -0.3827 C   0  0  0  0  0  0  0  0  0  0  0  0
   -3.7869   -2.2904   -1.0178 O   0  0  0  0  0  0  0  0  0  0  0  0
   -5.6207   -1.1779   -4.5135 C   0  0  0  0  0  0  0  0  0  0  0  0
   -4.2659   -0.7851   -5.1292 C   0  0  0  0  0  0  0  0  0  0  0  0
   -3.9042    0.5699   -4.6238 C   0  0  0  0  0  0  0  0  0  0  0  0
   -2.7191    1.0761   -5.2630 N   0  0  0  0  0  0  0  0  0  0  0  0
   -2.7149    1.0043   -6.7268 C   0  0  0  0  0  0  0  0  0  0  0  0
   -3.2025   -0.3592   -7.2242 C   0  0  0  0  0  0  0  0  0  0  0  0
   -4.4506   -0.7445   -6.5636 O   0  0  0  0  0  0  0  0  0  0  0  0
   -7.4669   -3.1102   -2.8917 O   0  0  0  0  0  0  0  0  0  0  0  0
   -8.9369   -1.3152   -1.2907 C   0  0  0  0  0  0  0  0  0  0  0  0
   -9.8154   -0.0935   -1.6123 C   0  0  0  0  0  0  0  0  0  0  0  0
   -9.1389    1.2238   -1.2736 C   0  0  0  0  0  0  0  0  0  0  0  0
   -7.6507    3.5814   -1.2869 O   0  0  0  0  0  0  0  0  0  0  0  0
   -1.4339    3.4438   -2.7587 C   0  0  0  0  0  0  0  0  0  0  0  0
   -0.1824    3.7341   -3.2671 C   0  0  0  0  0  0  0  0  0  0  0  0
    0.2231    3.1726   -4.5258 C   0  0  0  0  0  0  0  0  0  0  0  0
   -0.6504    2.2918   -5.1454 C   0  0  0  0  0  0  0  0  0  0  0  0
   -1.8941    1.9797   -4.6020 C   0  0  0  0  0  0  0  0  0  0  0  0
   -2.3077    2.5652   -3.3915 C   0  0  0  0  0  0  0  0  0  0  0  0
    1.3340   -3.2424   -1.8730 F   0  0  0  0  0  0  0  0  0  0  0  0
  1  2  1  0  0  0  0
  2  3  1  0  0  0  0
  2  5  1  0  0  0  0
  3  4  1  0  0  0  0
  5  6  4  0  0  0  0
  5 10  4  0  0  0  0
  6  7  4  0  0  0  0
  7  8  4  0  0  0  0
  8  9  4  0  0  0  0
  9 10  4  0  0  0  0
 10 11  1  0  0  0  0
 11 12  4  0  0  0  0
 11 15  4  0  0  0  0
 12 13  1  0  0  0  0
 12 68  4  0  0  0  0
 13 14  1  0  0  0  0
 15 16  1  0  0  0  0
 15 67  4  0  0  0  0
 16 17  1  0  0  0  0
 17 18  1  0  0  0  0
 17 19  1  0  0  0  0
 17 20  1  0  0  0  0
 20 21  1  0  0  0  0
 21 22  1  0  0  0  0
 22 23  1  0  0  0  0
 22 66  2  0  0  0  0
 23 24  1  0  0  0  0
 23 65  1  0  0  0  0
 24 25  1  0  0  0  0
 25 26  1  0  0  0  0
 25 63  1  0  0  0  0
 26 27  1  0  0  0  0
 26 62  2  0  0  0  0
 27 28  1  0  0  0  0
 27 55  1  0  0  0  0
 28 29  1  0  0  0  0
 29 30  1  0  0  0  0
 29 54  2  0  0  0  0
 30 31  1  0  0  0  0
 30 34  1  0  0  0  0
 31 32  1  0  0  0  0
 31 33  1  0  0  0  0
 34 35  1  0  0  0  0
 34 53  1  0  0  0  0
 35 36  1  0  0  0  0
 35 52  2  0  0  0  0
 36 37  1  0  0  0  0
 36 51  1  0  0  0  0
 36 73  1  0  0  0  0
 37 38  1  0  0  0  0
 38 39  1  0  0  0  0
 39 40  1  0  0  0  0
 39 50  1  0  0  0  0
 40 41  1  0  0  0  0
 40 49  2  0  0  0  0
 41 42  1  0  0  0  0
 42 43  1  0  0  0  0
 43 44  1  0  0  0  0
 43 47  1  0  0  0  0
 43 48  1  0  0  0  0
 44 45  1  0  0  0  0
 44 46  1  0  0  0  0
 50 51  1  0  0  0  0
 55 56  1  0  0  0  0
 56 57  1  0  0  0  0
 56 61  1  0  0  0  0
 57 58  1  0  0  0  0
 58 59  1  0  0  0  0
 58 71  1  0  0  0  0
 59 60  1  0  0  0  0
 60 61  1  0  0  0  0
 63 64  1  0  0  0  0
 64 65  1  0  0  0  0
 67 68  4  0  0  0  0
 67 72  4  0  0  0  0
 68 69  4  0  0  0  0
 69 70  4  0  0  0  0
 70 71  4  0  0  0  0
 71 72  4  0  0  0  0
M  END
$$$$
