mol_ETKDG5_269
  PyMOL3.1          3D                             0

 73 79  0  0  0  0  0  0  0  0999 V2000
    1.0877    3.4711    3.9706 C   0  0  0  0  0  0  0  0  0  0  0  0
    2.2967    3.6122    3.1266 C   0  0  0  0  0  0  0  0  0  0  0  0
    2.8751    4.9117    3.1301 O   0  0  0  0  0  0  0  0  0  0  0  0
    2.3147    5.8687    2.2876 C   0  0  0  0  0  0  0  0  0  0  0  0
    3.3746    2.6879    3.5147 C   0  0  0  0  0  0  0  0  0  0  0  0
    4.1594    3.0523    4.5061 N   0  0  0  0  0  0  0  0  0  0  0  0
    5.1586    2.2597    4.9358 C   0  0  0  0  0  0  0  0  0  0  0  0
    5.4034    1.0104    4.3616 C   0  0  0  0  0  0  0  0  0  0  0  0
    4.5723    0.5913    3.3212 C   0  0  0  0  0  0  0  0  0  0  0  0
    3.5611    1.4605    2.8871 C   0  0  0  0  0  0  0  0  0  0  0  0
    2.7372    1.0411    1.7815 C   0  0  0  0  0  0  0  0  0  0  0  0
    1.7214    0.1503    1.8988 N   0  0  0  0  0  0  0  0  0  0  0  0
    1.2298   -0.5143    3.1504 C   0  0  0  0  0  0  0  0  0  0  0  0
    1.6297   -1.9171    3.2571 C   0  0  0  0  0  0  0  0  0  0  0  0
    2.8288    1.5263    0.4523 C   0  0  0  0  0  0  0  0  0  0  0  0
    3.7219    2.5918   -0.1400 C   0  0  0  0  0  0  0  0  0  0  0  0
    5.0934    2.0573   -0.7453 C   0  0  0  0  0  0  0  0  0  0  0  0
    5.9435    1.3203    0.2501 C   0  0  0  0  0  0  0  0  0  0  0  0
    5.9238    3.2503   -1.1596 C   0  0  0  0  0  0  0  0  0  0  0  0
    4.8281    1.1494   -1.9209 C   0  0  0  0  0  0  0  0  0  0  0  0
    4.5424    1.8936   -3.1978 O   0  0  0  0  0  0  0  0  0  0  0  0
    5.1873    1.6234   -4.4355 C   0  0  0  0  0  0  0  0  0  0  0  0
    4.7916    2.4221   -5.6518 C   0  0  0  0  0  0  0  0  0  0  0  0
    3.8902    3.4808   -5.2941 N   0  0  0  0  0  0  0  0  0  0  0  0
    3.4505    4.2877   -6.3360 N   0  0  0  0  0  0  0  0  0  0  0  0
    2.1138    4.4538   -6.5797 C   0  0  0  0  0  0  0  0  0  0  0  0
    1.1287    3.8167   -5.6492 C   0  0  0  0  0  0  0  0  0  0  0  0
   -0.0087    4.6721   -5.4006 N   0  0  0  0  0  0  0  0  0  0  0  0
   -0.1426    5.3738   -4.2657 C   0  0  0  0  0  0  0  0  0  0  0  0
   -1.4389    6.0853   -4.0630 C   0  0  0  0  0  0  0  0  0  0  0  0
   -1.4479    7.5933   -4.4450 C   0  0  0  0  0  0  0  0  0  0  0  0
   -2.8295    8.1506   -4.5547 C   0  0  0  0  0  0  0  0  0  0  0  0
   -0.5800    7.9360   -5.6058 C   0  0  0  0  0  0  0  0  0  0  0  0
   -1.7994    5.8830   -2.6632 N   0  0  0  0  0  0  0  0  0  0  0  0
   -2.4398    4.7184   -2.3274 C   0  0  0  0  0  0  0  0  0  0  0  0
   -2.8088    4.3157   -0.9244 C   0  0  0  0  0  0  0  0  0  0  0  0
   -3.9008    3.2408   -0.8924 C   0  0  0  0  0  0  0  0  0  0  0  0
   -4.1325    2.7658    0.5027 C   0  0  0  0  0  0  0  0  0  0  0  0
   -2.8621    2.3761    1.1316 N   0  0  0  0  0  0  0  0  0  0  0  0
   -2.6525    1.1597    1.7064 C   0  0  0  0  0  0  0  0  0  0  0  0
   -3.3765    0.0483    1.3267 C   0  0  0  0  0  0  0  0  0  0  0  0
   -3.9144   -0.9478    1.1020 C   0  0  0  0  0  0  0  0  0  0  0  0
   -4.6383   -2.0905    0.7246 C   0  0  0  0  0  0  0  0  0  0  0  0
   -4.5114   -3.1090    1.7086 N   0  0  0  0  0  0  0  0  0  0  0  0
   -3.4430   -4.0257    1.6548 C   0  0  0  0  0  0  0  0  0  0  0  0
   -5.1742   -2.9677    2.9538 C   0  0  0  0  0  0  0  0  0  0  0  0
   -4.1317   -2.5786   -0.6277 C   0  0  0  0  0  0  0  0  0  0  0  0
   -6.1037   -1.7340    0.5304 C   0  0  0  0  0  0  0  0  0  0  0  0
   -1.7520    1.0261    2.5441 O   0  0  0  0  0  0  0  0  0  0  0  0
   -1.7971    3.3330    1.1002 C   0  0  0  0  0  0  0  0  0  0  0  0
   -1.5351    3.7650   -0.2968 C   0  0  0  0  0  0  0  0  0  0  0  0
   -2.7071    3.9235   -3.2490 O   0  0  0  0  0  0  0  0  0  0  0  0
   -1.3580    6.8718   -1.6629 C   0  0  0  0  0  0  0  0  0  0  0  0
    0.7187    5.3159   -3.4052 O   0  0  0  0  0  0  0  0  0  0  0  0
    0.6221    2.4379   -6.2317 C   0  0  0  0  0  0  0  0  0  0  0  0
   -0.2909    1.6489   -5.2537 C   0  0  0  0  0  0  0  0  0  0  0  0
    0.5974    1.0713   -4.2075 C   0  0  0  0  0  0  0  0  0  0  0  0
   -0.1285    0.2386   -3.2898 N   0  0  0  0  0  0  0  0  0  0  0  0
   -0.9676   -0.7918   -3.9100 C   0  0  0  0  0  0  0  0  0  0  0  0
   -1.7732   -0.2167   -5.0866 C   0  0  0  0  0  0  0  0  0  0  0  0
   -0.9239    0.5749   -5.9906 O   0  0  0  0  0  0  0  0  0  0  0  0
    1.7034    5.0971   -7.5630 O   0  0  0  0  0  0  0  0  0  0  0  0
    4.4981    4.9713   -7.0963 C   0  0  0  0  0  0  0  0  0  0  0  0
    5.5651    3.9410   -7.5392 C   0  0  0  0  0  0  0  0  0  0  0  0
    6.0179    3.0388   -6.3877 C   0  0  0  0  0  0  0  0  0  0  0  0
    6.0643    0.7545   -4.6107 O   0  0  0  0  0  0  0  0  0  0  0  0
    1.8094    0.8219   -0.2220 C   0  0  0  0  0  0  0  0  0  0  0  0
    1.1650   -0.0038    0.6920 C   0  0  0  0  0  0  0  0  0  0  0  0
    0.0699   -0.8194    0.2573 C   0  0  0  0  0  0  0  0  0  0  0  0
   -0.3354   -0.6971   -1.0684 C   0  0  0  0  0  0  0  0  0  0  0  0
    0.3116    0.1447   -1.9665 C   0  0  0  0  0  0  0  0  0  0  0  0
    1.4048    0.9247   -1.5455 C   0  0  0  0  0  0  0  0  0  0  0  0
   -3.2909    5.3842   -0.1998 F   0  0  0  0  0  0  0  0  0  0  0  0
  1  2  1  0  0  0  0
  2  3  1  0  0  0  0
  2  5  1  0  0  0  0
  3  4  1  0  0  0  0
  5  6  4  0  0  0  0
  5 10  4  0  0  0  0
  6  7  4  0  0  0  0
  7  8  4  0  0  0  0
  8  9  4  0  0  0  0
  9 10  4  0  0  0  0
 10 11  1  0  0  0  0
 11 12  4  0  0  0  0
 11 15  4  0  0  0  0
 12 13  1  0  0  0  0
 12 68  4  0  0  0  0
 13 14  1  0  0  0  0
 15 16  1  0  0  0  0
 15 67  4  0  0  0  0
 16 17  1  0  0  0  0
 17 18  1  0  0  0  0
 17 19  1  0  0  0  0
 17 20  1  0  0  0  0
 20 21  1  0  0  0  0
 21 22  1  0  0  0  0
 22 23  1  0  0  0  0
 22 66  2  0  0  0  0
 23 24  1  0  0  0  0
 23 65  1  0  0  0  0
 24 25  1  0  0  0  0
 25 26  1  0  0  0  0
 25 63  1  0  0  0  0
 26 27  1  0  0  0  0
 26 62  2  0  0  0  0
 27 28  1  0  0  0  0
 27 55  1  0  0  0  0
 28 29  1  0  0  0  0
 29 30  1  0  0  0  0
 29 54  2  0  0  0  0
 30 31  1  0  0  0  0
 30 34  1  0  0  0  0
 31 32  1  0  0  0  0
 31 33  1  0  0  0  0
 34 35  1  0  0  0  0
 34 53  1  0  0  0  0
 35 36  1  0  0  0  0
 35 52  2  0  0  0  0
 36 37  1  0  0  0  0
 36 51  1  0  0  0  0
 36 73  1  0  0  0  0
 37 38  1  0  0  0  0
 38 39  1  0  0  0  0
 39 40  1  0  0  0  0
 39 50  1  0  0  0  0
 40 41  1  0  0  0  0
 40 49  2  0  0  0  0
 41 42  1  0  0  0  0
 42 43  1  0  0  0  0
 43 44  1  0  0  0  0
 43 47  1  0  0  0  0
 43 48  1  0  0  0  0
 44 45  1  0  0  0  0
 44 46  1  0  0  0  0
 50 51  1  0  0  0  0
 55 56  1  0  0  0  0
 56 57  1  0  0  0  0
 56 61  1  0  0  0  0
 57 58  1  0  0  0  0
 58 59  1  0  0  0  0
 58 71  1  0  0  0  0
 59 60  1  0  0  0  0
 60 61  1  0  0  0  0
 63 64  1  0  0  0  0
 64 65  1  0  0  0  0
 67 68  4  0  0  0  0
 67 72  4  0  0  0  0
 68 69  4  0  0  0  0
 69 70  4  0  0  0  0
 70 71  4  0  0  0  0
 71 72  4  0  0  0  0
M  END
$$$$
