mol_ETKDG5_290
  PyMOL3.1          3D                             0

 73 79  0  0  0  0  0  0  0  0999 V2000
   -0.3481   -3.7046   -1.3802 C   0  0  0  0  0  0  0  0  0  0  0  0
   -0.2425   -2.2789   -1.0146 C   0  0  0  0  0  0  0  0  0  0  0  0
    0.4993   -1.4772   -1.9091 O   0  0  0  0  0  0  0  0  0  0  0  0
    1.9027   -1.6278   -1.9039 C   0  0  0  0  0  0  0  0  0  0  0  0
   -1.5572   -1.6360   -0.8532 C   0  0  0  0  0  0  0  0  0  0  0  0
   -2.2802   -1.4141   -1.9400 N   0  0  0  0  0  0  0  0  0  0  0  0
   -3.5203   -0.8838   -1.8617 C   0  0  0  0  0  0  0  0  0  0  0  0
   -4.0988   -0.5546   -0.6326 C   0  0  0  0  0  0  0  0  0  0  0  0
   -3.3532   -0.7880    0.5275 C   0  0  0  0  0  0  0  0  0  0  0  0
   -2.0563   -1.3108    0.4013 C   0  0  0  0  0  0  0  0  0  0  0  0
   -1.2721   -1.4944    1.5978 C   0  0  0  0  0  0  0  0  0  0  0  0
   -1.4203   -2.5465    2.4327 N   0  0  0  0  0  0  0  0  0  0  0  0
   -2.3489   -3.7155    2.2752 C   0  0  0  0  0  0  0  0  0  0  0  0
   -3.4934   -3.6797    3.1760 C   0  0  0  0  0  0  0  0  0  0  0  0
   -0.2095   -0.6571    2.0326 C   0  0  0  0  0  0  0  0  0  0  0  0
    0.4304    0.5446    1.3891 C   0  0  0  0  0  0  0  0  0  0  0  0
   -0.2051    1.9518    1.7439 C   0  0  0  0  0  0  0  0  0  0  0  0
    0.4745    2.9925    0.8698 C   0  0  0  0  0  0  0  0  0  0  0  0
   -1.6429    2.0307    1.3944 C   0  0  0  0  0  0  0  0  0  0  0  0
   -0.0296    2.2855    3.2222 C   0  0  0  0  0  0  0  0  0  0  0  0
    1.3183    2.8484    3.6172 O   0  0  0  0  0  0  0  0  0  0  0  0
    1.4968    4.0716    4.3536 C   0  0  0  0  0  0  0  0  0  0  0  0
    2.8898    4.5068    4.7723 C   0  0  0  0  0  0  0  0  0  0  0  0
    3.8946    3.8020    4.0424 N   0  0  0  0  0  0  0  0  0  0  0  0
    5.2225    4.1163    4.3255 N   0  0  0  0  0  0  0  0  0  0  0  0
    6.1176    3.1456    4.6756 C   0  0  0  0  0  0  0  0  0  0  0  0
    5.6449    1.7250    4.7147 C   0  0  0  0  0  0  0  0  0  0  0  0
    6.6673    0.8167    4.2408 N   0  0  0  0  0  0  0  0  0  0  0  0
    6.7021    0.3428    2.9926 C   0  0  0  0  0  0  0  0  0  0  0  0
    7.7307   -0.7135    2.7176 C   0  0  0  0  0  0  0  0  0  0  0  0
    8.9926   -0.1888    1.9457 C   0  0  0  0  0  0  0  0  0  0  0  0
   10.1163   -1.1785    1.9354 C   0  0  0  0  0  0  0  0  0  0  0  0
    9.4329    1.1723    2.3810 C   0  0  0  0  0  0  0  0  0  0  0  0
    7.0297   -1.7736    1.9879 N   0  0  0  0  0  0  0  0  0  0  0  0
    6.2993   -2.6907    2.7044 C   0  0  0  0  0  0  0  0  0  0  0  0
    5.4487   -3.7726    2.0953 C   0  0  0  0  0  0  0  0  0  0  0  0
    4.1710   -3.1123    1.6256 C   0  0  0  0  0  0  0  0  0  0  0  0
    3.2675   -4.0970    0.9841 C   0  0  0  0  0  0  0  0  0  0  0  0
    2.9983   -5.1924    1.9204 N   0  0  0  0  0  0  0  0  0  0  0  0
    1.7050   -5.5379    2.1954 C   0  0  0  0  0  0  0  0  0  0  0  0
    1.3702   -6.3494    3.2638 C   0  0  0  0  0  0  0  0  0  0  0  0
    0.9486   -7.0528    4.0831 C   0  0  0  0  0  0  0  0  0  0  0  0
    0.5954   -7.9269    5.1278 C   0  0  0  0  0  0  0  0  0  0  0  0
    0.0217   -9.1163    4.5974 N   0  0  0  0  0  0  0  0  0  0  0  0
   -1.1294   -9.0201    3.7870 C   0  0  0  0  0  0  0  0  0  0  0  0
    0.4959  -10.4004    4.8963 C   0  0  0  0  0  0  0  0  0  0  0  0
   -0.4160   -7.2645    6.0616 C   0  0  0  0  0  0  0  0  0  0  0  0
    1.8246   -8.2129    5.9552 C   0  0  0  0  0  0  0  0  0  0  0  0
    0.7864   -5.0944    1.5030 O   0  0  0  0  0  0  0  0  0  0  0  0
    4.1416   -5.8420    2.5080 C   0  0  0  0  0  0  0  0  0  0  0  0
    5.1018   -4.8873    3.0955 C   0  0  0  0  0  0  0  0  0  0  0  0
    6.3260   -2.5969    3.9474 O   0  0  0  0  0  0  0  0  0  0  0  0
    7.0174   -1.7385    0.5139 C   0  0  0  0  0  0  0  0  0  0  0  0
    5.8554    0.6771    2.1850 O   0  0  0  0  0  0  0  0  0  0  0  0
    5.2425    1.3191    6.1806 C   0  0  0  0  0  0  0  0  0  0  0  0
    4.6710   -0.1145    6.3089 C   0  0  0  0  0  0  0  0  0  0  0  0
    3.2638   -0.0762    5.8312 C   0  0  0  0  0  0  0  0  0  0  0  0
    2.5890   -1.3361    6.0222 N   0  0  0  0  0  0  0  0  0  0  0  0
    2.6960   -1.9050    7.3723 C   0  0  0  0  0  0  0  0  0  0  0  0
    4.1395   -1.8292    7.8947 C   0  0  0  0  0  0  0  0  0  0  0  0
    4.7049   -0.4841    7.7087 O   0  0  0  0  0  0  0  0  0  0  0  0
    7.2874    3.4159    4.9906 O   0  0  0  0  0  0  0  0  0  0  0  0
    5.5938    5.5170    4.1466 C   0  0  0  0  0  0  0  0  0  0  0  0
    4.5805    6.4125    4.8777 C   0  0  0  0  0  0  0  0  0  0  0  0
    3.1314    6.0352    4.5637 C   0  0  0  0  0  0  0  0  0  0  0  0
    0.5608    4.8256    4.6779 O   0  0  0  0  0  0  0  0  0  0  0  0
    0.2250   -1.2625    3.2191 C   0  0  0  0  0  0  0  0  0  0  0  0
   -0.5303   -2.4129    3.4227 C   0  0  0  0  0  0  0  0  0  0  0  0
   -0.2491   -3.2385    4.5565 C   0  0  0  0  0  0  0  0  0  0  0  0
    0.7965   -2.8518    5.3890 C   0  0  0  0  0  0  0  0  0  0  0  0
    1.5451   -1.6897    5.1642 C   0  0  0  0  0  0  0  0  0  0  0  0
    1.2629   -0.8810    4.0541 C   0  0  0  0  0  0  0  0  0  0  0  0
    6.1096   -4.4031    1.0589 F   0  0  0  0  0  0  0  0  0  0  0  0
  1  2  1  0  0  0  0
  2  3  1  0  0  0  0
  2  5  1  0  0  0  0
  3  4  1  0  0  0  0
  5  6  4  0  0  0  0
  5 10  4  0  0  0  0
  6  7  4  0  0  0  0
  7  8  4  0  0  0  0
  8  9  4  0  0  0  0
  9 10  4  0  0  0  0
 10 11  1  0  0  0  0
 11 12  4  0  0  0  0
 11 15  4  0  0  0  0
 12 13  1  0  0  0  0
 12 68  4  0  0  0  0
 13 14  1  0  0  0  0
 15 16  1  0  0  0  0
 15 67  4  0  0  0  0
 16 17  1  0  0  0  0
 17 18  1  0  0  0  0
 17 19  1  0  0  0  0
 17 20  1  0  0  0  0
 20 21  1  0  0  0  0
 21 22  1  0  0  0  0
 22 23  1  0  0  0  0
 22 66  2  0  0  0  0
 23 24  1  0  0  0  0
 23 65  1  0  0  0  0
 24 25  1  0  0  0  0
 25 26  1  0  0  0  0
 25 63  1  0  0  0  0
 26 27  1  0  0  0  0
 26 62  2  0  0  0  0
 27 28  1  0  0  0  0
 27 55  1  0  0  0  0
 28 29  1  0  0  0  0
 29 30  1  0  0  0  0
 29 54  2  0  0  0  0
 30 31  1  0  0  0  0
 30 34  1  0  0  0  0
 31 32  1  0  0  0  0
 31 33  1  0  0  0  0
 34 35  1  0  0  0  0
 34 53  1  0  0  0  0
 35 36  1  0  0  0  0
 35 52  2  0  0  0  0
 36 37  1  0  0  0  0
 36 51  1  0  0  0  0
 36 73  1  0  0  0  0
 37 38  1  0  0  0  0
 38 39  1  0  0  0  0
 39 40  1  0  0  0  0
 39 50  1  0  0  0  0
 40 41  1  0  0  0  0
 40 49  2  0  0  0  0
 41 42  1  0  0  0  0
 42 43  1  0  0  0  0
 43 44  1  0  0  0  0
 43 47  1  0  0  0  0
 43 48  1  0  0  0  0
 44 45  1  0  0  0  0
 44 46  1  0  0  0  0
 50 51  1  0  0  0  0
 55 56  1  0  0  0  0
 56 57  1  0  0  0  0
 56 61  1  0  0  0  0
 57 58  1  0  0  0  0
 58 59  1  0  0  0  0
 58 71  1  0  0  0  0
 59 60  1  0  0  0  0
 60 61  1  0  0  0  0
 63 64  1  0  0  0  0
 64 65  1  0  0  0  0
 67 68  4  0  0  0  0
 67 72  4  0  0  0  0
 68 69  4  0  0  0  0
 69 70  4  0  0  0  0
 70 71  4  0  0  0  0
 71 72  4  0  0  0  0
M  END
$$$$
