mol_ETKDG1_92
  PyMOL3.1          3D                             0

 73 79  0  0  0  0  0  0  0  0999 V2000
    2.2730    0.3424    6.2825 C   0  0  0  0  0  0  0  0  0  0  0  0
    1.2918   -0.7340    6.0217 C   0  0  0  0  0  0  0  0  0  0  0  0
    1.8227   -2.0507    6.0531 O   0  0  0  0  0  0  0  0  0  0  0  0
    2.5853   -2.4618    4.9500 C   0  0  0  0  0  0  0  0  0  0  0  0
    0.1633   -0.7013    6.9603 C   0  0  0  0  0  0  0  0  0  0  0  0
    0.3534   -1.2125    8.1689 N   0  0  0  0  0  0  0  0  0  0  0  0
   -0.6160   -1.1749    9.1129 C   0  0  0  0  0  0  0  0  0  0  0  0
   -1.8522   -0.5857    8.8657 C   0  0  0  0  0  0  0  0  0  0  0  0
   -2.0659   -0.0320    7.6021 C   0  0  0  0  0  0  0  0  0  0  0  0
   -1.0438   -0.1116    6.6326 C   0  0  0  0  0  0  0  0  0  0  0  0
   -1.3312    0.4341    5.3253 C   0  0  0  0  0  0  0  0  0  0  0  0
   -1.2951    1.7512    5.0468 N   0  0  0  0  0  0  0  0  0  0  0  0
   -0.7900    2.8355    5.9469 C   0  0  0  0  0  0  0  0  0  0  0  0
   -1.7859    3.7902    6.3663 C   0  0  0  0  0  0  0  0  0  0  0  0
   -1.6740   -0.2854    4.1549 C   0  0  0  0  0  0  0  0  0  0  0  0
   -1.5652   -1.7416    3.8635 C   0  0  0  0  0  0  0  0  0  0  0  0
   -2.8077   -2.6207    4.1709 C   0  0  0  0  0  0  0  0  0  0  0  0
   -3.2451   -2.5890    5.6158 C   0  0  0  0  0  0  0  0  0  0  0  0
   -2.4314   -4.0513    3.9295 C   0  0  0  0  0  0  0  0  0  0  0  0
   -3.9146   -2.1386    3.2889 C   0  0  0  0  0  0  0  0  0  0  0  0
   -3.9732   -2.8366    1.9363 O   0  0  0  0  0  0  0  0  0  0  0  0
   -5.0907   -3.6086    1.5188 C   0  0  0  0  0  0  0  0  0  0  0  0
   -5.1514   -4.1165    0.1152 C   0  0  0  0  0  0  0  0  0  0  0  0
   -3.9339   -3.8967   -0.6281 N   0  0  0  0  0  0  0  0  0  0  0  0
   -3.9527   -4.3295   -1.9503 N   0  0  0  0  0  0  0  0  0  0  0  0
   -3.6315   -3.4950   -2.9815 C   0  0  0  0  0  0  0  0  0  0  0  0
   -3.1011   -2.1238   -2.6925 C   0  0  0  0  0  0  0  0  0  0  0  0
   -2.2188   -1.6841   -3.7527 N   0  0  0  0  0  0  0  0  0  0  0  0
   -0.8966   -1.5606   -3.6043 C   0  0  0  0  0  0  0  0  0  0  0  0
   -0.1558   -0.9382   -4.7373 C   0  0  0  0  0  0  0  0  0  0  0  0
    0.6253   -1.9526   -5.6159 C   0  0  0  0  0  0  0  0  0  0  0  0
    1.2283   -1.3318   -6.8269 C   0  0  0  0  0  0  0  0  0  0  0  0
   -0.1615   -3.1826   -5.9267 C   0  0  0  0  0  0  0  0  0  0  0  0
    0.6943    0.1046   -4.1606 N   0  0  0  0  0  0  0  0  0  0  0  0
    0.1376    1.3343   -3.9143 C   0  0  0  0  0  0  0  0  0  0  0  0
    0.8393    2.4960   -3.2544 C   0  0  0  0  0  0  0  0  0  0  0  0
   -0.0148    3.7801   -3.2846 C   0  0  0  0  0  0  0  0  0  0  0  0
    0.5961    4.8848   -2.4712 C   0  0  0  0  0  0  0  0  0  0  0  0
    0.9327    4.3872   -1.1248 N   0  0  0  0  0  0  0  0  0  0  0  0
    0.4885    4.9341    0.0485 C   0  0  0  0  0  0  0  0  0  0  0  0
   -0.6120    5.7639    0.1491 C   0  0  0  0  0  0  0  0  0  0  0  0
   -1.4909    6.4916    0.3985 C   0  0  0  0  0  0  0  0  0  0  0  0
   -2.6153    7.3312    0.5611 C   0  0  0  0  0  0  0  0  0  0  0  0
   -2.4678    8.3143    1.5772 N   0  0  0  0  0  0  0  0  0  0  0  0
   -1.3195    8.3809    2.3560 C   0  0  0  0  0  0  0  0  0  0  0  0
   -3.4984    9.2027    1.8930 C   0  0  0  0  0  0  0  0  0  0  0  0
   -3.8153    6.4666    0.8975 C   0  0  0  0  0  0  0  0  0  0  0  0
   -2.8806    8.0143   -0.7623 C   0  0  0  0  0  0  0  0  0  0  0  0
    1.0459    4.6179    1.1034 O   0  0  0  0  0  0  0  0  0  0  0  0
    1.7478    3.2204   -1.0752 C   0  0  0  0  0  0  0  0  0  0  0  0
    1.0552    2.1124   -1.8084 C   0  0  0  0  0  0  0  0  0  0  0  0
   -1.0482    1.4975   -4.2531 O   0  0  0  0  0  0  0  0  0  0  0  0
    2.0695   -0.2370   -3.7632 C   0  0  0  0  0  0  0  0  0  0  0  0
   -0.3718   -1.8383   -2.5458 O   0  0  0  0  0  0  0  0  0  0  0  0
   -4.2690   -1.0686   -2.5757 C   0  0  0  0  0  0  0  0  0  0  0  0
   -3.7483    0.3383   -2.1662 C   0  0  0  0  0  0  0  0  0  0  0  0
   -3.5847    0.3363   -0.6848 C   0  0  0  0  0  0  0  0  0  0  0  0
   -3.1959    1.6417   -0.1802 N   0  0  0  0  0  0  0  0  0  0  0  0
   -4.0741    2.7360   -0.6570 C   0  0  0  0  0  0  0  0  0  0  0  0
   -4.2779    2.6622   -2.1678 C   0  0  0  0  0  0  0  0  0  0  0  0
   -4.7150    1.3187   -2.5729 O   0  0  0  0  0  0  0  0  0  0  0  0
   -3.7884   -3.8463   -4.1600 O   0  0  0  0  0  0  0  0  0  0  0  0
   -4.2739   -5.7406   -2.1505 C   0  0  0  0  0  0  0  0  0  0  0  0
   -5.5506   -6.1062   -1.3773 C   0  0  0  0  0  0  0  0  0  0  0  0
   -5.5108   -5.6147    0.0612 C   0  0  0  0  0  0  0  0  0  0  0  0
   -6.0642   -3.9354    2.2441 O   0  0  0  0  0  0  0  0  0  0  0  0
   -1.9889    0.7011    3.2105 C   0  0  0  0  0  0  0  0  0  0  0  0
   -1.7136    1.9273    3.7789 C   0  0  0  0  0  0  0  0  0  0  0  0
   -1.8723    3.1138    2.9802 C   0  0  0  0  0  0  0  0  0  0  0  0
   -2.3471    2.9644    1.6755 C   0  0  0  0  0  0  0  0  0  0  0  0
   -2.6760    1.7293    1.1305 C   0  0  0  0  0  0  0  0  0  0  0  0
   -2.4548    0.5628    1.8916 C   0  0  0  0  0  0  0  0  0  0  0  0
    2.0368    2.7612   -3.8842 F   0  0  0  0  0  0  0  0  0  0  0  0
  1  2  1  0  0  0  0
  2  3  1  0  0  0  0
  2  5  1  0  0  0  0
  3  4  1  0  0  0  0
  5  6  4  0  0  0  0
  5 10  4  0  0  0  0
  6  7  4  0  0  0  0
  7  8  4  0  0  0  0
  8  9  4  0  0  0  0
  9 10  4  0  0  0  0
 10 11  1  0  0  0  0
 11 12  4  0  0  0  0
 11 15  4  0  0  0  0
 12 13  1  0  0  0  0
 12 68  4  0  0  0  0
 13 14  1  0  0  0  0
 15 16  1  0  0  0  0
 15 67  4  0  0  0  0
 16 17  1  0  0  0  0
 17 18  1  0  0  0  0
 17 19  1  0  0  0  0
 17 20  1  0  0  0  0
 20 21  1  0  0  0  0
 21 22  1  0  0  0  0
 22 23  1  0  0  0  0
 22 66  2  0  0  0  0
 23 24  1  0  0  0  0
 23 65  1  0  0  0  0
 24 25  1  0  0  0  0
 25 26  1  0  0  0  0
 25 63  1  0  0  0  0
 26 27  1  0  0  0  0
 26 62  2  0  0  0  0
 27 28  1  0  0  0  0
 27 55  1  0  0  0  0
 28 29  1  0  0  0  0
 29 30  1  0  0  0  0
 29 54  2  0  0  0  0
 30 31  1  0  0  0  0
 30 34  1  0  0  0  0
 31 32  1  0  0  0  0
 31 33  1  0  0  0  0
 34 35  1  0  0  0  0
 34 53  1  0  0  0  0
 35 36  1  0  0  0  0
 35 52  2  0  0  0  0
 36 37  1  0  0  0  0
 36 51  1  0  0  0  0
 36 73  1  0  0  0  0
 37 38  1  0  0  0  0
 38 39  1  0  0  0  0
 39 40  1  0  0  0  0
 39 50  1  0  0  0  0
 40 41  1  0  0  0  0
 40 49  2  0  0  0  0
 41 42  1  0  0  0  0
 42 43  1  0  0  0  0
 43 44  1  0  0  0  0
 43 47  1  0  0  0  0
 43 48  1  0  0  0  0
 44 45  1  0  0  0  0
 44 46  1  0  0  0  0
 50 51  1  0  0  0  0
 55 56  1  0  0  0  0
 56 57  1  0  0  0  0
 56 61  1  0  0  0  0
 57 58  1  0  0  0  0
 58 59  1  0  0  0  0
 58 71  1  0  0  0  0
 59 60  1  0  0  0  0
 60 61  1  0  0  0  0
 63 64  1  0  0  0  0
 64 65  1  0  0  0  0
 67 68  4  0  0  0  0
 67 72  4  0  0  0  0
 68 69  4  0  0  0  0
 69 70  4  0  0  0  0
 70 71  4  0  0  0  0
 71 72  4  0  0  0  0
M  END
$$$$
