mol_ETKDG2_110
  PyMOL3.1          3D                             0

 73 79  0  0  0  0  0  0  0  0999 V2000
    2.7648   -1.4633   -1.5761 C   0  0  0  0  0  0  0  0  0  0  0  0
    1.7828   -1.0383   -2.6046 C   0  0  0  0  0  0  0  0  0  0  0  0
    2.3018   -0.1244   -3.5640 O   0  0  0  0  0  0  0  0  0  0  0  0
    2.5006    1.1977   -3.1482 C   0  0  0  0  0  0  0  0  0  0  0  0
    1.2378   -2.1856   -3.3452 C   0  0  0  0  0  0  0  0  0  0  0  0
    1.9868   -2.6977   -4.3043 N   0  0  0  0  0  0  0  0  0  0  0  0
    1.5984   -3.7938   -4.9908 C   0  0  0  0  0  0  0  0  0  0  0  0
    0.3935   -4.4401   -4.7161 C   0  0  0  0  0  0  0  0  0  0  0  0
   -0.4116   -3.9258   -3.6977 C   0  0  0  0  0  0  0  0  0  0  0  0
    0.0133   -2.7689   -3.0212 C   0  0  0  0  0  0  0  0  0  0  0  0
   -0.8757   -2.2057   -2.0252 C   0  0  0  0  0  0  0  0  0  0  0  0
   -1.0271   -2.6818   -0.7595 N   0  0  0  0  0  0  0  0  0  0  0  0
   -0.3015   -3.8284   -0.1255 C   0  0  0  0  0  0  0  0  0  0  0  0
    0.8236   -3.3698    0.7281 C   0  0  0  0  0  0  0  0  0  0  0  0
   -1.7129   -1.0891   -2.2076 C   0  0  0  0  0  0  0  0  0  0  0  0
   -1.7914   -0.1590   -3.3654 C   0  0  0  0  0  0  0  0  0  0  0  0
   -2.8651   -0.5199   -4.4334 C   0  0  0  0  0  0  0  0  0  0  0  0
   -2.9400   -1.9701   -4.8181 C   0  0  0  0  0  0  0  0  0  0  0  0
   -2.5103    0.2040   -5.7086 C   0  0  0  0  0  0  0  0  0  0  0  0
   -4.1965   -0.1618   -3.8369 C   0  0  0  0  0  0  0  0  0  0  0  0
   -4.4756    1.3152   -3.8698 O   0  0  0  0  0  0  0  0  0  0  0  0
   -5.4102    1.9058   -4.7511 C   0  0  0  0  0  0  0  0  0  0  0  0
   -5.7902    3.3277   -4.5482 C   0  0  0  0  0  0  0  0  0  0  0  0
   -4.9512    3.9881   -3.6040 N   0  0  0  0  0  0  0  0  0  0  0  0
   -5.2801    5.3085   -3.3362 N   0  0  0  0  0  0  0  0  0  0  0  0
   -5.4564    5.7436   -2.0569 C   0  0  0  0  0  0  0  0  0  0  0  0
   -5.0949    4.8442   -0.9195 C   0  0  0  0  0  0  0  0  0  0  0  0
   -4.4622    5.5957    0.1243 N   0  0  0  0  0  0  0  0  0  0  0  0
   -3.1491    5.5653    0.3418 C   0  0  0  0  0  0  0  0  0  0  0  0
   -2.6721    6.2746    1.5613 C   0  0  0  0  0  0  0  0  0  0  0  0
   -2.0837    7.6801    1.3278 C   0  0  0  0  0  0  0  0  0  0  0  0
   -2.0328    8.5173    2.5487 C   0  0  0  0  0  0  0  0  0  0  0  0
   -2.5373    8.3753    0.1024 C   0  0  0  0  0  0  0  0  0  0  0  0
   -1.7127    5.3876    2.2116 N   0  0  0  0  0  0  0  0  0  0  0  0
   -2.1837    4.3434    2.9629 C   0  0  0  0  0  0  0  0  0  0  0  0
   -1.3171    3.3211    3.6429 C   0  0  0  0  0  0  0  0  0  0  0  0
   -0.5536    2.5741    2.5989 C   0  0  0  0  0  0  0  0  0  0  0  0
    0.3644    1.6239    3.2131 C   0  0  0  0  0  0  0  0  0  0  0  0
   -0.3341    0.6976    4.0844 N   0  0  0  0  0  0  0  0  0  0  0  0
   -0.0274   -0.6203    3.9810 C   0  0  0  0  0  0  0  0  0  0  0  0
   -0.5067   -1.5877    4.8388 C   0  0  0  0  0  0  0  0  0  0  0  0
   -0.7689   -2.5062    5.4840 C   0  0  0  0  0  0  0  0  0  0  0  0
   -1.2311   -3.4744    6.3828 C   0  0  0  0  0  0  0  0  0  0  0  0
   -2.5916   -3.2483    6.6465 N   0  0  0  0  0  0  0  0  0  0  0  0
   -3.5668   -3.7575    5.7950 C   0  0  0  0  0  0  0  0  0  0  0  0
   -2.9924   -2.3879    7.6759 C   0  0  0  0  0  0  0  0  0  0  0  0
   -1.0294   -4.8767    5.8394 C   0  0  0  0  0  0  0  0  0  0  0  0
   -0.4370   -3.3939    7.6833 C   0  0  0  0  0  0  0  0  0  0  0  0
    0.7456   -0.9836    3.0913 O   0  0  0  0  0  0  0  0  0  0  0  0
   -1.2877    1.2479    5.0078 C   0  0  0  0  0  0  0  0  0  0  0  0
   -2.1357    2.2878    4.4392 C   0  0  0  0  0  0  0  0  0  0  0  0
   -3.4166    4.2364    3.0778 O   0  0  0  0  0  0  0  0  0  0  0  0
   -0.2839    5.5880    1.9427 C   0  0  0  0  0  0  0  0  0  0  0  0
   -2.4256    4.8799   -0.3638 O   0  0  0  0  0  0  0  0  0  0  0  0
   -6.3325    4.0663   -0.3190 C   0  0  0  0  0  0  0  0  0  0  0  0
   -5.9045    3.0464    0.7905 C   0  0  0  0  0  0  0  0  0  0  0  0
   -5.3355    1.8619    0.1090 C   0  0  0  0  0  0  0  0  0  0  0  0
   -4.9487    0.8155    1.0383 N   0  0  0  0  0  0  0  0  0  0  0  0
   -6.0045    0.4241    1.9860 C   0  0  0  0  0  0  0  0  0  0  0  0
   -6.6737    1.6691    2.6010 C   0  0  0  0  0  0  0  0  0  0  0  0
   -7.0591    2.6577    1.5729 O   0  0  0  0  0  0  0  0  0  0  0  0
   -5.9044    6.8771   -1.8191 O   0  0  0  0  0  0  0  0  0  0  0  0
   -5.3627    6.1996   -4.4940 C   0  0  0  0  0  0  0  0  0  0  0  0
   -6.2242    5.5740   -5.5941 C   0  0  0  0  0  0  0  0  0  0  0  0
   -5.8346    4.1290   -5.8637 C   0  0  0  0  0  0  0  0  0  0  0  0
   -5.9668    1.3350   -5.7258 O   0  0  0  0  0  0  0  0  0  0  0  0
   -2.4118   -0.9571   -0.9830 C   0  0  0  0  0  0  0  0  0  0  0  0
   -1.9365   -1.9226   -0.1163 C   0  0  0  0  0  0  0  0  0  0  0  0
   -2.4407   -1.9587    1.2351 C   0  0  0  0  0  0  0  0  0  0  0  0
   -3.4224   -1.0178    1.5951 C   0  0  0  0  0  0  0  0  0  0  0  0
   -3.9267   -0.0817    0.6808 C   0  0  0  0  0  0  0  0  0  0  0  0
   -3.4044   -0.0375   -0.6216 C   0  0  0  0  0  0  0  0  0  0  0  0
   -0.4781    3.9523    4.5427 F   0  0  0  0  0  0  0  0  0  0  0  0
  1  2  1  0  0  0  0
  2  3  1  0  0  0  0
  2  5  1  0  0  0  0
  3  4  1  0  0  0  0
  5  6  4  0  0  0  0
  5 10  4  0  0  0  0
  6  7  4  0  0  0  0
  7  8  4  0  0  0  0
  8  9  4  0  0  0  0
  9 10  4  0  0  0  0
 10 11  1  0  0  0  0
 11 12  4  0  0  0  0
 11 15  4  0  0  0  0
 12 13  1  0  0  0  0
 12 68  4  0  0  0  0
 13 14  1  0  0  0  0
 15 16  1  0  0  0  0
 15 67  4  0  0  0  0
 16 17  1  0  0  0  0
 17 18  1  0  0  0  0
 17 19  1  0  0  0  0
 17 20  1  0  0  0  0
 20 21  1  0  0  0  0
 21 22  1  0  0  0  0
 22 23  1  0  0  0  0
 22 66  2  0  0  0  0
 23 24  1  0  0  0  0
 23 65  1  0  0  0  0
 24 25  1  0  0  0  0
 25 26  1  0  0  0  0
 25 63  1  0  0  0  0
 26 27  1  0  0  0  0
 26 62  2  0  0  0  0
 27 28  1  0  0  0  0
 27 55  1  0  0  0  0
 28 29  1  0  0  0  0
 29 30  1  0  0  0  0
 29 54  2  0  0  0  0
 30 31  1  0  0  0  0
 30 34  1  0  0  0  0
 31 32  1  0  0  0  0
 31 33  1  0  0  0  0
 34 35  1  0  0  0  0
 34 53  1  0  0  0  0
 35 36  1  0  0  0  0
 35 52  2  0  0  0  0
 36 37  1  0  0  0  0
 36 51  1  0  0  0  0
 36 73  1  0  0  0  0
 37 38  1  0  0  0  0
 38 39  1  0  0  0  0
 39 40  1  0  0  0  0
 39 50  1  0  0  0  0
 40 41  1  0  0  0  0
 40 49  2  0  0  0  0
 41 42  1  0  0  0  0
 42 43  1  0  0  0  0
 43 44  1  0  0  0  0
 43 47  1  0  0  0  0
 43 48  1  0  0  0  0
 44 45  1  0  0  0  0
 44 46  1  0  0  0  0
 50 51  1  0  0  0  0
 55 56  1  0  0  0  0
 56 57  1  0  0  0  0
 56 61  1  0  0  0  0
 57 58  1  0  0  0  0
 58 59  1  0  0  0  0
 58 71  1  0  0  0  0
 59 60  1  0  0  0  0
 60 61  1  0  0  0  0
 63 64  1  0  0  0  0
 64 65  1  0  0  0  0
 67 68  4  0  0  0  0
 67 72  4  0  0  0  0
 68 69  4  0  0  0  0
 69 70  4  0  0  0  0
 70 71  4  0  0  0  0
 71 72  4  0  0  0  0
M  END
$$$$
