mol_ETKDG1_78
  PyMOL3.1          3D                             0

 73 79  0  0  0  0  0  0  0  0999 V2000
    2.5140   -0.4135    6.9057 C   0  0  0  0  0  0  0  0  0  0  0  0
    3.4470   -0.5501    5.7671 C   0  0  0  0  0  0  0  0  0  0  0  0
    3.6405    0.6036    4.9945 O   0  0  0  0  0  0  0  0  0  0  0  0
    2.5636    1.0667    4.2182 C   0  0  0  0  0  0  0  0  0  0  0  0
    4.7781   -1.0183    6.1771 C   0  0  0  0  0  0  0  0  0  0  0  0
    5.5247   -0.1966    6.8961 N   0  0  0  0  0  0  0  0  0  0  0  0
    6.7346   -0.5785    7.3536 C   0  0  0  0  0  0  0  0  0  0  0  0
    7.2444   -1.8563    7.1009 C   0  0  0  0  0  0  0  0  0  0  0  0
    6.4602   -2.7394    6.3556 C   0  0  0  0  0  0  0  0  0  0  0  0
    5.2302   -2.2958    5.8633 C   0  0  0  0  0  0  0  0  0  0  0  0
    4.4461   -3.1933    5.0481 C   0  0  0  0  0  0  0  0  0  0  0  0
    3.6638   -4.1700    5.5643 N   0  0  0  0  0  0  0  0  0  0  0  0
    3.4322   -4.4873    7.0178 C   0  0  0  0  0  0  0  0  0  0  0  0
    4.1381   -5.6866    7.4679 C   0  0  0  0  0  0  0  0  0  0  0  0
    4.3317   -3.1539    3.6280 C   0  0  0  0  0  0  0  0  0  0  0  0
    4.9258   -2.2057    2.6093 C   0  0  0  0  0  0  0  0  0  0  0  0
    6.3712   -2.6075    2.0703 C   0  0  0  0  0  0  0  0  0  0  0  0
    6.9601   -1.3843    1.3637 C   0  0  0  0  0  0  0  0  0  0  0  0
    7.3222   -2.9260    3.1457 C   0  0  0  0  0  0  0  0  0  0  0  0
    6.3204   -3.7878    1.1358 C   0  0  0  0  0  0  0  0  0  0  0  0
    5.8299   -3.5443   -0.2504 O   0  0  0  0  0  0  0  0  0  0  0  0
    6.4304   -4.1074   -1.4168 C   0  0  0  0  0  0  0  0  0  0  0  0
    5.7685   -3.8717   -2.7503 C   0  0  0  0  0  0  0  0  0  0  0  0
    4.6848   -2.9523   -2.6150 N   0  0  0  0  0  0  0  0  0  0  0  0
    3.9920   -2.6404   -3.7805 N   0  0  0  0  0  0  0  0  0  0  0  0
    2.6410   -2.8020   -3.8544 C   0  0  0  0  0  0  0  0  0  0  0  0
    1.9072   -3.2777   -2.6380 C   0  0  0  0  0  0  0  0  0  0  0  0
    0.6475   -2.5810   -2.4878 N   0  0  0  0  0  0  0  0  0  0  0  0
    0.4791   -1.5785   -1.6253 C   0  0  0  0  0  0  0  0  0  0  0  0
   -0.9096   -1.0536   -1.4614 C   0  0  0  0  0  0  0  0  0  0  0  0
   -1.2413    0.2326   -2.2554 C   0  0  0  0  0  0  0  0  0  0  0  0
   -2.7005    0.4708   -2.4214 C   0  0  0  0  0  0  0  0  0  0  0  0
   -0.4326    0.4592   -3.4697 C   0  0  0  0  0  0  0  0  0  0  0  0
   -1.0983   -0.8547   -0.0272 N   0  0  0  0  0  0  0  0  0  0  0  0
   -1.4572   -1.9383    0.7310 C   0  0  0  0  0  0  0  0  0  0  0  0
   -1.6119   -1.9071    2.2261 C   0  0  0  0  0  0  0  0  0  0  0  0
   -0.2216   -1.8866    2.8094 C   0  0  0  0  0  0  0  0  0  0  0  0
   -0.2671   -1.8126    4.2772 C   0  0  0  0  0  0  0  0  0  0  0  0
   -1.0548   -2.9260    4.8048 N   0  0  0  0  0  0  0  0  0  0  0  0
   -0.5330   -3.6920    5.7962 C   0  0  0  0  0  0  0  0  0  0  0  0
   -1.0843   -4.9156    6.1476 C   0  0  0  0  0  0  0  0  0  0  0  0
   -1.4627   -5.9016    6.5942 C   0  0  0  0  0  0  0  0  0  0  0  0
   -2.0754   -7.0898    7.0133 C   0  0  0  0  0  0  0  0  0  0  0  0
   -2.9162   -6.8086    8.1241 N   0  0  0  0  0  0  0  0  0  0  0  0
   -2.3513   -6.5867    9.3968 C   0  0  0  0  0  0  0  0  0  0  0  0
   -4.2805   -6.4836    7.9574 C   0  0  0  0  0  0  0  0  0  0  0  0
   -1.0320   -8.1270    7.3993 C   0  0  0  0  0  0  0  0  0  0  0  0
   -2.8675   -7.6877    5.8687 C   0  0  0  0  0  0  0  0  0  0  0  0
    0.4702   -3.3173    6.3981 O   0  0  0  0  0  0  0  0  0  0  0  0
   -2.3580   -3.1379    4.2343 C   0  0  0  0  0  0  0  0  0  0  0  0
   -2.3553   -3.1361    2.7692 C   0  0  0  0  0  0  0  0  0  0  0  0
   -1.6385   -3.0198    0.1416 O   0  0  0  0  0  0  0  0  0  0  0  0
   -0.7834    0.4615    0.5598 C   0  0  0  0  0  0  0  0  0  0  0  0
    1.4112   -1.2213   -0.9233 O   0  0  0  0  0  0  0  0  0  0  0  0
    1.6393   -4.8338   -2.6918 C   0  0  0  0  0  0  0  0  0  0  0  0
    0.9491   -5.3887   -1.4122 C   0  0  0  0  0  0  0  0  0  0  0  0
    1.9836   -5.4626   -0.3417 C   0  0  0  0  0  0  0  0  0  0  0  0
    1.4720   -6.0483    0.8723 N   0  0  0  0  0  0  0  0  0  0  0  0
    0.7812   -7.3313    0.7048 C   0  0  0  0  0  0  0  0  0  0  0  0
   -0.1819   -7.2877   -0.4952 C   0  0  0  0  0  0  0  0  0  0  0  0
    0.4562   -6.7232   -1.6912 O   0  0  0  0  0  0  0  0  0  0  0  0
    2.0188   -2.5878   -4.9069 O   0  0  0  0  0  0  0  0  0  0  0  0
    4.7886   -2.0738   -4.8654 C   0  0  0  0  0  0  0  0  0  0  0  0
    6.0123   -2.9779   -5.1229 C   0  0  0  0  0  0  0  0  0  0  0  0
    6.7500   -3.3398   -3.8320 C   0  0  0  0  0  0  0  0  0  0  0  0
    7.4811   -4.7785   -1.4340 O   0  0  0  0  0  0  0  0  0  0  0  0
    3.4437   -4.2031    3.3447 C   0  0  0  0  0  0  0  0  0  0  0  0
    3.0616   -4.7956    4.5469 C   0  0  0  0  0  0  0  0  0  0  0  0
    2.1310   -5.8822    4.5284 C   0  0  0  0  0  0  0  0  0  0  0  0
    1.6186   -6.2700    3.2926 C   0  0  0  0  0  0  0  0  0  0  0  0
    2.0089   -5.6518    2.0998 C   0  0  0  0  0  0  0  0  0  0  0  0
    2.9330   -4.5979    2.1247 C   0  0  0  0  0  0  0  0  0  0  0  0
   -2.3642   -0.8094    2.6194 F   0  0  0  0  0  0  0  0  0  0  0  0
  1  2  1  0  0  0  0
  2  3  1  0  0  0  0
  2  5  1  0  0  0  0
  3  4  1  0  0  0  0
  5  6  4  0  0  0  0
  5 10  4  0  0  0  0
  6  7  4  0  0  0  0
  7  8  4  0  0  0  0
  8  9  4  0  0  0  0
  9 10  4  0  0  0  0
 10 11  1  0  0  0  0
 11 12  4  0  0  0  0
 11 15  4  0  0  0  0
 12 13  1  0  0  0  0
 12 68  4  0  0  0  0
 13 14  1  0  0  0  0
 15 16  1  0  0  0  0
 15 67  4  0  0  0  0
 16 17  1  0  0  0  0
 17 18  1  0  0  0  0
 17 19  1  0  0  0  0
 17 20  1  0  0  0  0
 20 21  1  0  0  0  0
 21 22  1  0  0  0  0
 22 23  1  0  0  0  0
 22 66  2  0  0  0  0
 23 24  1  0  0  0  0
 23 65  1  0  0  0  0
 24 25  1  0  0  0  0
 25 26  1  0  0  0  0
 25 63  1  0  0  0  0
 26 27  1  0  0  0  0
 26 62  2  0  0  0  0
 27 28  1  0  0  0  0
 27 55  1  0  0  0  0
 28 29  1  0  0  0  0
 29 30  1  0  0  0  0
 29 54  2  0  0  0  0
 30 31  1  0  0  0  0
 30 34  1  0  0  0  0
 31 32  1  0  0  0  0
 31 33  1  0  0  0  0
 34 35  1  0  0  0  0
 34 53  1  0  0  0  0
 35 36  1  0  0  0  0
 35 52  2  0  0  0  0
 36 37  1  0  0  0  0
 36 51  1  0  0  0  0
 36 73  1  0  0  0  0
 37 38  1  0  0  0  0
 38 39  1  0  0  0  0
 39 40  1  0  0  0  0
 39 50  1  0  0  0  0
 40 41  1  0  0  0  0
 40 49  2  0  0  0  0
 41 42  1  0  0  0  0
 42 43  1  0  0  0  0
 43 44  1  0  0  0  0
 43 47  1  0  0  0  0
 43 48  1  0  0  0  0
 44 45  1  0  0  0  0
 44 46  1  0  0  0  0
 50 51  1  0  0  0  0
 55 56  1  0  0  0  0
 56 57  1  0  0  0  0
 56 61  1  0  0  0  0
 57 58  1  0  0  0  0
 58 59  1  0  0  0  0
 58 71  1  0  0  0  0
 59 60  1  0  0  0  0
 60 61  1  0  0  0  0
 63 64  1  0  0  0  0
 64 65  1  0  0  0  0
 67 68  4  0  0  0  0
 67 72  4  0  0  0  0
 68 69  4  0  0  0  0
 69 70  4  0  0  0  0
 70 71  4  0  0  0  0
 71 72  4  0  0  0  0
M  END
$$$$
