mol_ETKDG1_68
  PyMOL3.1          3D                             0

 73 79  0  0  0  0  0  0  0  0999 V2000
   -2.9968   -3.6190    1.4734 C   0  0  0  0  0  0  0  0  0  0  0  0
   -2.5201   -4.9051    0.9224 C   0  0  0  0  0  0  0  0  0  0  0  0
   -3.5556   -5.9266    0.9492 O   0  0  0  0  0  0  0  0  0  0  0  0
   -4.2633   -6.1298   -0.2374 C   0  0  0  0  0  0  0  0  0  0  0  0
   -1.3422   -5.4493    1.6576 C   0  0  0  0  0  0  0  0  0  0  0  0
   -1.5825   -6.1673    2.7438 N   0  0  0  0  0  0  0  0  0  0  0  0
   -0.5795   -6.7464    3.4426 C   0  0  0  0  0  0  0  0  0  0  0  0
    0.7591   -6.5843    3.0717 C   0  0  0  0  0  0  0  0  0  0  0  0
    1.0430   -5.8211    1.9346 C   0  0  0  0  0  0  0  0  0  0  0  0
   -0.0180   -5.2290    1.2412 C   0  0  0  0  0  0  0  0  0  0  0  0
    0.3259   -4.3985    0.1136 C   0  0  0  0  0  0  0  0  0  0  0  0
    0.4424   -4.8653   -1.1587 N   0  0  0  0  0  0  0  0  0  0  0  0
    0.1782   -6.2674   -1.6469 C   0  0  0  0  0  0  0  0  0  0  0  0
    1.3934   -7.0126   -1.9992 C   0  0  0  0  0  0  0  0  0  0  0  0
    0.5335   -2.9837    0.1555 C   0  0  0  0  0  0  0  0  0  0  0  0
    0.4035   -1.9755    1.2709 C   0  0  0  0  0  0  0  0  0  0  0  0
    1.6879   -1.6819    2.1644 C   0  0  0  0  0  0  0  0  0  0  0  0
    1.8772   -2.7699    3.2201 C   0  0  0  0  0  0  0  0  0  0  0  0
    1.3888   -0.4373    2.9481 C   0  0  0  0  0  0  0  0  0  0  0  0
    3.0124   -1.5146    1.3655 C   0  0  0  0  0  0  0  0  0  0  0  0
    3.3587   -0.0935    0.9806 O   0  0  0  0  0  0  0  0  0  0  0  0
    4.5622    0.6001    1.3682 C   0  0  0  0  0  0  0  0  0  0  0  0
    4.7196    2.0724    0.9325 C   0  0  0  0  0  0  0  0  0  0  0  0
    3.4553    2.7227    1.0995 N   0  0  0  0  0  0  0  0  0  0  0  0
    3.3649    4.0857    0.8305 N   0  0  0  0  0  0  0  0  0  0  0  0
    2.4697    4.5638   -0.0935 C   0  0  0  0  0  0  0  0  0  0  0  0
    1.6802    3.5709   -0.9048 C   0  0  0  0  0  0  0  0  0  0  0  0
    0.2986    3.9865   -1.0787 N   0  0  0  0  0  0  0  0  0  0  0  0
   -0.7341    3.4314   -0.3950 C   0  0  0  0  0  0  0  0  0  0  0  0
   -2.1008    3.8498   -0.8390 C   0  0  0  0  0  0  0  0  0  0  0  0
   -2.8192    4.8647    0.1158 C   0  0  0  0  0  0  0  0  0  0  0  0
   -4.0003    5.5254   -0.5256 C   0  0  0  0  0  0  0  0  0  0  0  0
   -1.8916    5.8454    0.7704 C   0  0  0  0  0  0  0  0  0  0  0  0
   -2.8701    2.6025   -1.0263 N   0  0  0  0  0  0  0  0  0  0  0  0
   -2.7551    1.9218   -2.2275 C   0  0  0  0  0  0  0  0  0  0  0  0
   -3.3968    0.5861   -2.5546 C   0  0  0  0  0  0  0  0  0  0  0  0
   -3.4908    0.3233   -4.0714 C   0  0  0  0  0  0  0  0  0  0  0  0
   -3.9969   -1.0715   -4.3640 C   0  0  0  0  0  0  0  0  0  0  0  0
   -3.2201   -2.0794   -3.6081 N   0  0  0  0  0  0  0  0  0  0  0  0
   -2.6132   -3.1813   -4.1765 C   0  0  0  0  0  0  0  0  0  0  0  0
   -2.1054   -3.1778   -5.4707 C   0  0  0  0  0  0  0  0  0  0  0  0
   -1.6519   -3.3131   -6.5459 C   0  0  0  0  0  0  0  0  0  0  0  0
   -1.1077   -3.2861   -7.8630 C   0  0  0  0  0  0  0  0  0  0  0  0
   -1.0647   -4.6020   -8.4303 N   0  0  0  0  0  0  0  0  0  0  0  0
   -2.2480   -5.1775   -8.9546 C   0  0  0  0  0  0  0  0  0  0  0  0
   -0.0079   -5.4954   -8.1200 C   0  0  0  0  0  0  0  0  0  0  0  0
   -1.9542   -2.3564   -8.7310 C   0  0  0  0  0  0  0  0  0  0  0  0
    0.2869   -2.6833   -7.8354 C   0  0  0  0  0  0  0  0  0  0  0  0
   -2.4373   -4.2037   -3.4963 O   0  0  0  0  0  0  0  0  0  0  0  0
   -3.0900   -1.8594   -2.1967 C   0  0  0  0  0  0  0  0  0  0  0  0
   -2.5146   -0.4926   -1.9266 C   0  0  0  0  0  0  0  0  0  0  0  0
   -2.0332    2.4380   -3.1025 O   0  0  0  0  0  0  0  0  0  0  0  0
   -3.6388    2.0653    0.1185 C   0  0  0  0  0  0  0  0  0  0  0  0
   -0.5445    2.5512    0.4271 O   0  0  0  0  0  0  0  0  0  0  0  0
    2.3711    3.3951   -2.3254 C   0  0  0  0  0  0  0  0  0  0  0  0
    1.7050    2.3476   -3.2705 C   0  0  0  0  0  0  0  0  0  0  0  0
    2.0949    0.9879   -2.7970 C   0  0  0  0  0  0  0  0  0  0  0  0
    1.5989   -0.0567   -3.6627 N   0  0  0  0  0  0  0  0  0  0  0  0
    1.9305    0.1054   -5.0915 C   0  0  0  0  0  0  0  0  0  0  0  0
    1.6478    1.5487   -5.5501 C   0  0  0  0  0  0  0  0  0  0  0  0
    2.2336    2.5390   -4.6185 O   0  0  0  0  0  0  0  0  0  0  0  0
    2.3499    5.7785   -0.3210 O   0  0  0  0  0  0  0  0  0  0  0  0
    4.2389    4.9384    1.6398 C   0  0  0  0  0  0  0  0  0  0  0  0
    5.6865    4.3872    1.5144 C   0  0  0  0  0  0  0  0  0  0  0  0
    5.7646    2.8742    1.7847 C   0  0  0  0  0  0  0  0  0  0  0  0
    5.4658    0.0609    2.0227 O   0  0  0  0  0  0  0  0  0  0  0  0
    0.8355   -2.6630   -1.1831 C   0  0  0  0  0  0  0  0  0  0  0  0
    0.7734   -3.8312   -1.9516 C   0  0  0  0  0  0  0  0  0  0  0  0
    1.0244   -3.7509   -3.3642 C   0  0  0  0  0  0  0  0  0  0  0  0
    1.3012   -2.4797   -3.8997 C   0  0  0  0  0  0  0  0  0  0  0  0
    1.3399   -1.3218   -3.1060 C   0  0  0  0  0  0  0  0  0  0  0  0
    1.1029   -1.4102   -1.7270 C   0  0  0  0  0  0  0  0  0  0  0  0
   -4.6842    0.5126   -2.0556 F   0  0  0  0  0  0  0  0  0  0  0  0
  1  2  1  0  0  0  0
  2  3  1  0  0  0  0
  2  5  1  0  0  0  0
  3  4  1  0  0  0  0
  5  6  4  0  0  0  0
  5 10  4  0  0  0  0
  6  7  4  0  0  0  0
  7  8  4  0  0  0  0
  8  9  4  0  0  0  0
  9 10  4  0  0  0  0
 10 11  1  0  0  0  0
 11 12  4  0  0  0  0
 11 15  4  0  0  0  0
 12 13  1  0  0  0  0
 12 68  4  0  0  0  0
 13 14  1  0  0  0  0
 15 16  1  0  0  0  0
 15 67  4  0  0  0  0
 16 17  1  0  0  0  0
 17 18  1  0  0  0  0
 17 19  1  0  0  0  0
 17 20  1  0  0  0  0
 20 21  1  0  0  0  0
 21 22  1  0  0  0  0
 22 23  1  0  0  0  0
 22 66  2  0  0  0  0
 23 24  1  0  0  0  0
 23 65  1  0  0  0  0
 24 25  1  0  0  0  0
 25 26  1  0  0  0  0
 25 63  1  0  0  0  0
 26 27  1  0  0  0  0
 26 62  2  0  0  0  0
 27 28  1  0  0  0  0
 27 55  1  0  0  0  0
 28 29  1  0  0  0  0
 29 30  1  0  0  0  0
 29 54  2  0  0  0  0
 30 31  1  0  0  0  0
 30 34  1  0  0  0  0
 31 32  1  0  0  0  0
 31 33  1  0  0  0  0
 34 35  1  0  0  0  0
 34 53  1  0  0  0  0
 35 36  1  0  0  0  0
 35 52  2  0  0  0  0
 36 37  1  0  0  0  0
 36 51  1  0  0  0  0
 36 73  1  0  0  0  0
 37 38  1  0  0  0  0
 38 39  1  0  0  0  0
 39 40  1  0  0  0  0
 39 50  1  0  0  0  0
 40 41  1  0  0  0  0
 40 49  2  0  0  0  0
 41 42  1  0  0  0  0
 42 43  1  0  0  0  0
 43 44  1  0  0  0  0
 43 47  1  0  0  0  0
 43 48  1  0  0  0  0
 44 45  1  0  0  0  0
 44 46  1  0  0  0  0
 50 51  1  0  0  0  0
 55 56  1  0  0  0  0
 56 57  1  0  0  0  0
 56 61  1  0  0  0  0
 57 58  1  0  0  0  0
 58 59  1  0  0  0  0
 58 71  1  0  0  0  0
 59 60  1  0  0  0  0
 60 61  1  0  0  0  0
 63 64  1  0  0  0  0
 64 65  1  0  0  0  0
 67 68  4  0  0  0  0
 67 72  4  0  0  0  0
 68 69  4  0  0  0  0
 69 70  4  0  0  0  0
 70 71  4  0  0  0  0
 71 72  4  0  0  0  0
M  END
$$$$
