mol_ETKDG1_84
  PyMOL3.1          3D                             0

 73 79  0  0  0  0  0  0  0  0999 V2000
    3.5236    3.6551   -6.0146 C   0  0  0  0  0  0  0  0  0  0  0  0
    4.4363    4.0218   -4.9134 C   0  0  0  0  0  0  0  0  0  0  0  0
    5.7306    3.4477   -4.9676 O   0  0  0  0  0  0  0  0  0  0  0  0
    5.8503    2.0811   -4.6395 C   0  0  0  0  0  0  0  0  0  0  0  0
    4.6152    5.4782   -4.7665 C   0  0  0  0  0  0  0  0  0  0  0  0
    5.3767    6.1057   -5.6458 N   0  0  0  0  0  0  0  0  0  0  0  0
    5.5604    7.4454   -5.5894 C   0  0  0  0  0  0  0  0  0  0  0  0
    4.9437    8.2295   -4.6027 C   0  0  0  0  0  0  0  0  0  0  0  0
    4.1240    7.5839   -3.6665 C   0  0  0  0  0  0  0  0  0  0  0  0
    3.9736    6.1884   -3.7510 C   0  0  0  0  0  0  0  0  0  0  0  0
    3.1598    5.5204   -2.7625 C   0  0  0  0  0  0  0  0  0  0  0  0
    1.8019    5.4760   -2.8130 N   0  0  0  0  0  0  0  0  0  0  0  0
    0.9004    6.0591   -3.8688 C   0  0  0  0  0  0  0  0  0  0  0  0
    0.1955    7.2669   -3.4095 C   0  0  0  0  0  0  0  0  0  0  0  0
    3.6413    4.7488   -1.6688 C   0  0  0  0  0  0  0  0  0  0  0  0
    5.0337    4.3242   -1.2943 C   0  0  0  0  0  0  0  0  0  0  0  0
    5.8583    5.2423   -0.3164 C   0  0  0  0  0  0  0  0  0  0  0  0
    6.1596    6.6106   -0.9042 C   0  0  0  0  0  0  0  0  0  0  0  0
    7.2087    4.5921   -0.1397 C   0  0  0  0  0  0  0  0  0  0  0  0
    5.1427    5.4197    1.0277 C   0  0  0  0  0  0  0  0  0  0  0  0
    5.3655    4.2834    2.0080 O   0  0  0  0  0  0  0  0  0  0  0  0
    5.9742    4.4374    3.2990 C   0  0  0  0  0  0  0  0  0  0  0  0
    6.0807    3.2194    4.2140 C   0  0  0  0  0  0  0  0  0  0  0  0
    6.2210    2.0222    3.4321 N   0  0  0  0  0  0  0  0  0  0  0  0
    6.4119    0.8139    4.1077 N   0  0  0  0  0  0  0  0  0  0  0  0
    5.6052   -0.2721    3.8731 C   0  0  0  0  0  0  0  0  0  0  0  0
    4.4485   -0.1358    2.9233 C   0  0  0  0  0  0  0  0  0  0  0  0
    4.2708   -1.3307    2.1084 N   0  0  0  0  0  0  0  0  0  0  0  0
    4.6771   -1.4024    0.8194 C   0  0  0  0  0  0  0  0  0  0  0  0
    4.2873   -2.6392    0.0648 C   0  0  0  0  0  0  0  0  0  0  0  0
    5.4192   -3.6989   -0.1153 C   0  0  0  0  0  0  0  0  0  0  0  0
    4.8961   -5.0397   -0.5280 C   0  0  0  0  0  0  0  0  0  0  0  0
    6.3880   -3.7621    1.0142 C   0  0  0  0  0  0  0  0  0  0  0  0
    3.7518   -2.1992   -1.2282 N   0  0  0  0  0  0  0  0  0  0  0  0
    2.4142   -1.8862   -1.3100 C   0  0  0  0  0  0  0  0  0  0  0  0
    1.7142   -1.3436   -2.5356 C   0  0  0  0  0  0  0  0  0  0  0  0
    1.8656    0.1627   -2.4975 C   0  0  0  0  0  0  0  0  0  0  0  0
    1.2120    0.7932   -3.6929 C   0  0  0  0  0  0  0  0  0  0  0  0
   -0.2021    0.4003   -3.7045 N   0  0  0  0  0  0  0  0  0  0  0  0
   -1.1668    1.3777   -3.7313 C   0  0  0  0  0  0  0  0  0  0  0  0
   -2.3644    1.3139   -3.0156 C   0  0  0  0  0  0  0  0  0  0  0  0
   -3.3854    1.4491   -2.4652 C   0  0  0  0  0  0  0  0  0  0  0  0
   -4.5872    1.5077   -1.7215 C   0  0  0  0  0  0  0  0  0  0  0  0
   -5.4439    2.5208   -2.2620 N   0  0  0  0  0  0  0  0  0  0  0  0
   -6.0448    2.3104   -3.5267 C   0  0  0  0  0  0  0  0  0  0  0  0
   -5.3714    3.8610   -1.8033 C   0  0  0  0  0  0  0  0  0  0  0  0
   -5.2877    0.1564   -1.7528 C   0  0  0  0  0  0  0  0  0  0  0  0
   -4.2657    1.7907   -0.2691 C   0  0  0  0  0  0  0  0  0  0  0  0
   -0.9430    2.4145   -4.3442 O   0  0  0  0  0  0  0  0  0  0  0  0
   -0.4815   -1.0174   -3.6822 C   0  0  0  0  0  0  0  0  0  0  0  0
    0.2164   -1.7063   -2.5629 C   0  0  0  0  0  0  0  0  0  0  0  0
    1.7266   -2.0415   -0.2809 O   0  0  0  0  0  0  0  0  0  0  0  0
    4.6904   -1.9828   -2.3484 C   0  0  0  0  0  0  0  0  0  0  0  0
    5.2159   -0.4457    0.2957 O   0  0  0  0  0  0  0  0  0  0  0  0
    3.1245    0.1518    3.7402 C   0  0  0  0  0  0  0  0  0  0  0  0
    1.8825    0.4584    2.8635 C   0  0  0  0  0  0  0  0  0  0  0  0
    2.0324    1.8410    2.3314 C   0  0  0  0  0  0  0  0  0  0  0  0
    0.8784    2.2584    1.5743 N   0  0  0  0  0  0  0  0  0  0  0  0
   -0.4137    2.0880    2.2490 C   0  0  0  0  0  0  0  0  0  0  0  0
   -0.5060    0.7051    2.9221 C   0  0  0  0  0  0  0  0  0  0  0  0
    0.7008    0.3989    3.7070 O   0  0  0  0  0  0  0  0  0  0  0  0
    5.7754   -1.3529    4.4649 O   0  0  0  0  0  0  0  0  0  0  0  0
    7.5611    0.7705    5.0118 C   0  0  0  0  0  0  0  0  0  0  0  0
    7.5087    2.0017    5.9502 C   0  0  0  0  0  0  0  0  0  0  0  0
    7.3036    3.3058    5.1838 C   0  0  0  0  0  0  0  0  0  0  0  0
    6.4164    5.5256    3.7279 O   0  0  0  0  0  0  0  0  0  0  0  0
    2.4635    4.3032   -1.0337 C   0  0  0  0  0  0  0  0  0  0  0  0
    1.3683    4.7564   -1.7715 C   0  0  0  0  0  0  0  0  0  0  0  0
    0.0416    4.3711   -1.3721 C   0  0  0  0  0  0  0  0  0  0  0  0
   -0.0801    3.5390   -0.2571 C   0  0  0  0  0  0  0  0  0  0  0  0
    1.0335    3.1021    0.4707 C   0  0  0  0  0  0  0  0  0  0  0  0
    2.3297    3.4892    0.0843 C   0  0  0  0  0  0  0  0  0  0  0  0
    2.2305   -1.8746   -3.6997 F   0  0  0  0  0  0  0  0  0  0  0  0
  1  2  1  0  0  0  0
  2  3  1  0  0  0  0
  2  5  1  0  0  0  0
  3  4  1  0  0  0  0
  5  6  4  0  0  0  0
  5 10  4  0  0  0  0
  6  7  4  0  0  0  0
  7  8  4  0  0  0  0
  8  9  4  0  0  0  0
  9 10  4  0  0  0  0
 10 11  1  0  0  0  0
 11 12  4  0  0  0  0
 11 15  4  0  0  0  0
 12 13  1  0  0  0  0
 12 68  4  0  0  0  0
 13 14  1  0  0  0  0
 15 16  1  0  0  0  0
 15 67  4  0  0  0  0
 16 17  1  0  0  0  0
 17 18  1  0  0  0  0
 17 19  1  0  0  0  0
 17 20  1  0  0  0  0
 20 21  1  0  0  0  0
 21 22  1  0  0  0  0
 22 23  1  0  0  0  0
 22 66  2  0  0  0  0
 23 24  1  0  0  0  0
 23 65  1  0  0  0  0
 24 25  1  0  0  0  0
 25 26  1  0  0  0  0
 25 63  1  0  0  0  0
 26 27  1  0  0  0  0
 26 62  2  0  0  0  0
 27 28  1  0  0  0  0
 27 55  1  0  0  0  0
 28 29  1  0  0  0  0
 29 30  1  0  0  0  0
 29 54  2  0  0  0  0
 30 31  1  0  0  0  0
 30 34  1  0  0  0  0
 31 32  1  0  0  0  0
 31 33  1  0  0  0  0
 34 35  1  0  0  0  0
 34 53  1  0  0  0  0
 35 36  1  0  0  0  0
 35 52  2  0  0  0  0
 36 37  1  0  0  0  0
 36 51  1  0  0  0  0
 36 73  1  0  0  0  0
 37 38  1  0  0  0  0
 38 39  1  0  0  0  0
 39 40  1  0  0  0  0
 39 50  1  0  0  0  0
 40 41  1  0  0  0  0
 40 49  2  0  0  0  0
 41 42  1  0  0  0  0
 42 43  1  0  0  0  0
 43 44  1  0  0  0  0
 43 47  1  0  0  0  0
 43 48  1  0  0  0  0
 44 45  1  0  0  0  0
 44 46  1  0  0  0  0
 50 51  1  0  0  0  0
 55 56  1  0  0  0  0
 56 57  1  0  0  0  0
 56 61  1  0  0  0  0
 57 58  1  0  0  0  0
 58 59  1  0  0  0  0
 58 71  1  0  0  0  0
 59 60  1  0  0  0  0
 60 61  1  0  0  0  0
 63 64  1  0  0  0  0
 64 65  1  0  0  0  0
 67 68  4  0  0  0  0
 67 72  4  0  0  0  0
 68 69  4  0  0  0  0
 69 70  4  0  0  0  0
 70 71  4  0  0  0  0
 71 72  4  0  0  0  0
M  END
$$$$
