mol_ETKDG3_188
  PyMOL3.1          3D                             0

 73 79  0  0  0  0  0  0  0  0999 V2000
    3.2663   -6.0473    2.5759 C   0  0  0  0  0  0  0  0  0  0  0  0
    2.7411   -5.6714    1.2421 C   0  0  0  0  0  0  0  0  0  0  0  0
    3.6784   -5.7073    0.1899 O   0  0  0  0  0  0  0  0  0  0  0  0
    4.6209   -4.6644    0.1363 C   0  0  0  0  0  0  0  0  0  0  0  0
    1.6006   -6.5068    0.8284 C   0  0  0  0  0  0  0  0  0  0  0  0
    1.8458   -7.7508    0.4459 N   0  0  0  0  0  0  0  0  0  0  0  0
    0.8409   -8.5916    0.1189 C   0  0  0  0  0  0  0  0  0  0  0  0
   -0.5007   -8.1880    0.1783 C   0  0  0  0  0  0  0  0  0  0  0  0
   -0.7764   -6.8765    0.5905 C   0  0  0  0  0  0  0  0  0  0  0  0
    0.2985   -6.0225    0.8817 C   0  0  0  0  0  0  0  0  0  0  0  0
    0.0224   -4.6506    1.2429 C   0  0  0  0  0  0  0  0  0  0  0  0
   -0.2623   -4.2529    2.5073 N   0  0  0  0  0  0  0  0  0  0  0  0
   -0.3221   -5.1147    3.7394 C   0  0  0  0  0  0  0  0  0  0  0  0
   -1.6731   -5.3145    4.2469 C   0  0  0  0  0  0  0  0  0  0  0  0
    0.0981   -3.5315    0.3686 C   0  0  0  0  0  0  0  0  0  0  0  0
    0.4772   -3.4479   -1.0942 C   0  0  0  0  0  0  0  0  0  0  0  0
   -0.7213   -3.5923   -2.1295 C   0  0  0  0  0  0  0  0  0  0  0  0
   -1.6491   -4.7389   -1.8464 C   0  0  0  0  0  0  0  0  0  0  0  0
   -0.1315   -3.8964   -3.4883 C   0  0  0  0  0  0  0  0  0  0  0  0
   -1.5694   -2.3331   -2.1415 C   0  0  0  0  0  0  0  0  0  0  0  0
   -0.9900   -1.1434   -2.8539 O   0  0  0  0  0  0  0  0  0  0  0  0
   -1.6406   -0.4851   -3.9422 C   0  0  0  0  0  0  0  0  0  0  0  0
   -1.0992    0.8581   -4.3848 C   0  0  0  0  0  0  0  0  0  0  0  0
    0.2962    0.9582   -4.0801 N   0  0  0  0  0  0  0  0  0  0  0  0
    0.9382    2.1326   -4.4686 N   0  0  0  0  0  0  0  0  0  0  0  0
    1.6111    2.9172   -3.5722 C   0  0  0  0  0  0  0  0  0  0  0  0
    1.6439    2.5130   -2.1215 C   0  0  0  0  0  0  0  0  0  0  0  0
    2.9267    2.8357   -1.5278 N   0  0  0  0  0  0  0  0  0  0  0  0
    3.8822    1.9314   -1.2908 C   0  0  0  0  0  0  0  0  0  0  0  0
    5.0802    2.4141   -0.5387 C   0  0  0  0  0  0  0  0  0  0  0  0
    6.3466    2.6619   -1.4209 C   0  0  0  0  0  0  0  0  0  0  0  0
    7.4178    3.4180   -0.7021 C   0  0  0  0  0  0  0  0  0  0  0  0
    6.0467    3.2183   -2.7709 C   0  0  0  0  0  0  0  0  0  0  0  0
    5.3232    1.4220    0.5140 N   0  0  0  0  0  0  0  0  0  0  0  0
    4.5761    1.4890    1.6637 C   0  0  0  0  0  0  0  0  0  0  0  0
    4.6698    0.4993    2.8027 C   0  0  0  0  0  0  0  0  0  0  0  0
    3.8758   -0.7239    2.3901 C   0  0  0  0  0  0  0  0  0  0  0  0
    3.9308   -1.7741    3.4504 C   0  0  0  0  0  0  0  0  0  0  0  0
    3.4340   -1.1970    4.7104 N   0  0  0  0  0  0  0  0  0  0  0  0
    2.4148   -1.8137    5.3785 C   0  0  0  0  0  0  0  0  0  0  0  0
    1.5564   -1.1378    6.2491 C   0  0  0  0  0  0  0  0  0  0  0  0
    0.7555   -0.7498    6.9948 C   0  0  0  0  0  0  0  0  0  0  0  0
   -0.1791   -0.1221    7.8555 C   0  0  0  0  0  0  0  0  0  0  0  0
   -1.0329   -1.1051    8.4577 N   0  0  0  0  0  0  0  0  0  0  0  0
   -2.0521   -1.7088    7.6959 C   0  0  0  0  0  0  0  0  0  0  0  0
   -0.5747   -1.8379    9.5859 C   0  0  0  0  0  0  0  0  0  0  0  0
   -0.9887    0.8864    7.0650 C   0  0  0  0  0  0  0  0  0  0  0  0
    0.5469    0.6559    8.9289 C   0  0  0  0  0  0  0  0  0  0  0  0
    2.1922   -2.9997    5.1751 O   0  0  0  0  0  0  0  0  0  0  0  0
    4.0628    0.0192    5.1635 C   0  0  0  0  0  0  0  0  0  0  0  0
    4.0826    1.0601    4.1096 C   0  0  0  0  0  0  0  0  0  0  0  0
    3.7446    2.4136    1.7585 O   0  0  0  0  0  0  0  0  0  0  0  0
    6.2598    0.3173    0.2436 C   0  0  0  0  0  0  0  0  0  0  0  0
    3.6974    0.7560   -1.5689 O   0  0  0  0  0  0  0  0  0  0  0  0
    0.5070    3.2786   -1.3146 C   0  0  0  0  0  0  0  0  0  0  0  0
    0.4356    2.8933    0.1936 C   0  0  0  0  0  0  0  0  0  0  0  0
   -0.3065    1.6183    0.2936 C   0  0  0  0  0  0  0  0  0  0  0  0
   -0.4738    1.1898    1.6555 N   0  0  0  0  0  0  0  0  0  0  0  0
   -1.0589    2.1929    2.5566 C   0  0  0  0  0  0  0  0  0  0  0  0
   -0.3941    3.5640    2.3531 C   0  0  0  0  0  0  0  0  0  0  0  0
   -0.2993    3.9266    0.9213 O   0  0  0  0  0  0  0  0  0  0  0  0
    2.1667    3.9755   -3.9194 O   0  0  0  0  0  0  0  0  0  0  0  0
    0.8885    2.4230   -5.9025 C   0  0  0  0  0  0  0  0  0  0  0  0
   -0.5832    2.3787   -6.3685 C   0  0  0  0  0  0  0  0  0  0  0  0
   -1.2880    1.1033   -5.9160 C   0  0  0  0  0  0  0  0  0  0  0  0
   -2.6212   -0.9495   -4.5752 O   0  0  0  0  0  0  0  0  0  0  0  0
   -0.1999   -2.4399    1.2095 C   0  0  0  0  0  0  0  0  0  0  0  0
   -0.4165   -2.9217    2.5016 C   0  0  0  0  0  0  0  0  0  0  0  0
   -0.7157   -1.9984    3.5514 C   0  0  0  0  0  0  0  0  0  0  0  0
   -0.7245   -0.6385    3.2350 C   0  0  0  0  0  0  0  0  0  0  0  0
   -0.4807   -0.1775    1.9423 C   0  0  0  0  0  0  0  0  0  0  0  0
   -0.2225   -1.0896    0.9017 C   0  0  0  0  0  0  0  0  0  0  0  0
    5.9831    0.1882    3.0811 F   0  0  0  0  0  0  0  0  0  0  0  0
  1  2  1  0  0  0  0
  2  3  1  0  0  0  0
  2  5  1  0  0  0  0
  3  4  1  0  0  0  0
  5  6  4  0  0  0  0
  5 10  4  0  0  0  0
  6  7  4  0  0  0  0
  7  8  4  0  0  0  0
  8  9  4  0  0  0  0
  9 10  4  0  0  0  0
 10 11  1  0  0  0  0
 11 12  4  0  0  0  0
 11 15  4  0  0  0  0
 12 13  1  0  0  0  0
 12 68  4  0  0  0  0
 13 14  1  0  0  0  0
 15 16  1  0  0  0  0
 15 67  4  0  0  0  0
 16 17  1  0  0  0  0
 17 18  1  0  0  0  0
 17 19  1  0  0  0  0
 17 20  1  0  0  0  0
 20 21  1  0  0  0  0
 21 22  1  0  0  0  0
 22 23  1  0  0  0  0
 22 66  2  0  0  0  0
 23 24  1  0  0  0  0
 23 65  1  0  0  0  0
 24 25  1  0  0  0  0
 25 26  1  0  0  0  0
 25 63  1  0  0  0  0
 26 27  1  0  0  0  0
 26 62  2  0  0  0  0
 27 28  1  0  0  0  0
 27 55  1  0  0  0  0
 28 29  1  0  0  0  0
 29 30  1  0  0  0  0
 29 54  2  0  0  0  0
 30 31  1  0  0  0  0
 30 34  1  0  0  0  0
 31 32  1  0  0  0  0
 31 33  1  0  0  0  0
 34 35  1  0  0  0  0
 34 53  1  0  0  0  0
 35 36  1  0  0  0  0
 35 52  2  0  0  0  0
 36 37  1  0  0  0  0
 36 51  1  0  0  0  0
 36 73  1  0  0  0  0
 37 38  1  0  0  0  0
 38 39  1  0  0  0  0
 39 40  1  0  0  0  0
 39 50  1  0  0  0  0
 40 41  1  0  0  0  0
 40 49  2  0  0  0  0
 41 42  1  0  0  0  0
 42 43  1  0  0  0  0
 43 44  1  0  0  0  0
 43 47  1  0  0  0  0
 43 48  1  0  0  0  0
 44 45  1  0  0  0  0
 44 46  1  0  0  0  0
 50 51  1  0  0  0  0
 55 56  1  0  0  0  0
 56 57  1  0  0  0  0
 56 61  1  0  0  0  0
 57 58  1  0  0  0  0
 58 59  1  0  0  0  0
 58 71  1  0  0  0  0
 59 60  1  0  0  0  0
 60 61  1  0  0  0  0
 63 64  1  0  0  0  0
 64 65  1  0  0  0  0
 67 68  4  0  0  0  0
 67 72  4  0  0  0  0
 68 69  4  0  0  0  0
 69 70  4  0  0  0  0
 70 71  4  0  0  0  0
 71 72  4  0  0  0  0
M  END
$$$$
