mol_ETKDG0_323
  PyMOL3.1          3D                             0

 73 79  0  0  0  0  0  0  0  0999 V2000
    2.2978   -4.9470   -3.2667 C   0  0  0  0  0  0  0  0  0  0  0  0
    1.3737   -4.7263   -2.1389 C   0  0  0  0  0  0  0  0  0  0  0  0
    0.0158   -4.9862   -2.3974 O   0  0  0  0  0  0  0  0  0  0  0  0
   -0.6710   -4.0946   -3.2437 C   0  0  0  0  0  0  0  0  0  0  0  0
    1.7561   -5.4910   -0.9318 C   0  0  0  0  0  0  0  0  0  0  0  0
    1.5609   -6.8024   -0.9305 N   0  0  0  0  0  0  0  0  0  0  0  0
    1.9350   -7.5678    0.1199 C   0  0  0  0  0  0  0  0  0  0  0  0
    2.5627   -7.0178    1.2434 C   0  0  0  0  0  0  0  0  0  0  0  0
    2.7841   -5.6289    1.2605 C   0  0  0  0  0  0  0  0  0  0  0  0
    2.3531   -4.8683    0.1607 C   0  0  0  0  0  0  0  0  0  0  0  0
    2.5312   -3.4369    0.2003 C   0  0  0  0  0  0  0  0  0  0  0  0
    3.6722   -2.8194   -0.2066 N   0  0  0  0  0  0  0  0  0  0  0  0
    4.9204   -3.4540   -0.7620 C   0  0  0  0  0  0  0  0  0  0  0  0
    6.0172   -3.5028    0.2103 C   0  0  0  0  0  0  0  0  0  0  0  0
    1.5371   -2.4801    0.5602 C   0  0  0  0  0  0  0  0  0  0  0  0
    0.0795   -2.6392    0.9310 C   0  0  0  0  0  0  0  0  0  0  0  0
   -0.2660   -2.8724    2.4655 C   0  0  0  0  0  0  0  0  0  0  0  0
    0.1060   -4.2668    2.9362 C   0  0  0  0  0  0  0  0  0  0  0  0
   -1.7606   -2.8235    2.5935 C   0  0  0  0  0  0  0  0  0  0  0  0
    0.3547   -1.8446    3.4086 C   0  0  0  0  0  0  0  0  0  0  0  0
   -0.5179   -0.6338    3.6877 O   0  0  0  0  0  0  0  0  0  0  0  0
   -0.5255    0.1078    4.8977 C   0  0  0  0  0  0  0  0  0  0  0  0
   -1.4708    1.2942    5.0407 C   0  0  0  0  0  0  0  0  0  0  0  0
   -2.2777    1.4356    3.8634 N   0  0  0  0  0  0  0  0  0  0  0  0
   -3.2243    2.4482    3.8300 N   0  0  0  0  0  0  0  0  0  0  0  0
   -3.2617    3.3289    2.7839 C   0  0  0  0  0  0  0  0  0  0  0  0
   -2.2556    3.1674    1.6741 C   0  0  0  0  0  0  0  0  0  0  0  0
   -2.8358    3.4639    0.3770 N   0  0  0  0  0  0  0  0  0  0  0  0
   -3.0921    2.5039   -0.5402 C   0  0  0  0  0  0  0  0  0  0  0  0
   -3.5319    2.9767   -1.8922 C   0  0  0  0  0  0  0  0  0  0  0  0
   -5.0665    2.9573   -2.1390 C   0  0  0  0  0  0  0  0  0  0  0  0
   -5.4961    3.8472   -3.2566 C   0  0  0  0  0  0  0  0  0  0  0  0
   -5.9089    3.0666   -0.9170 C   0  0  0  0  0  0  0  0  0  0  0  0
   -2.8044    2.1482   -2.8703 N   0  0  0  0  0  0  0  0  0  0  0  0
   -1.5003    2.4758   -3.1671 C   0  0  0  0  0  0  0  0  0  0  0  0
   -0.5872    1.6670   -4.0702 C   0  0  0  0  0  0  0  0  0  0  0  0
   -0.1972    0.4279   -3.2954 C   0  0  0  0  0  0  0  0  0  0  0  0
    0.7014   -0.4584   -4.0889 C   0  0  0  0  0  0  0  0  0  0  0  0
    1.8889    0.3057   -4.4935 N   0  0  0  0  0  0  0  0  0  0  0  0
    3.1449   -0.1754   -4.1984 C   0  0  0  0  0  0  0  0  0  0  0  0
    4.2705    0.6384   -4.2496 C   0  0  0  0  0  0  0  0  0  0  0  0
    5.2905    1.1835   -4.2743 C   0  0  0  0  0  0  0  0  0  0  0  0
    6.4569    1.9601   -4.3183 C   0  0  0  0  0  0  0  0  0  0  0  0
    7.5901    1.2246   -3.8554 N   0  0  0  0  0  0  0  0  0  0  0  0
    8.7207    1.8730   -3.3499 C   0  0  0  0  0  0  0  0  0  0  0  0
    7.7393   -0.1412   -4.1970 C   0  0  0  0  0  0  0  0  0  0  0  0
    6.2277    3.2053   -3.4774 C   0  0  0  0  0  0  0  0  0  0  0  0
    6.7041    2.4285   -5.7585 C   0  0  0  0  0  0  0  0  0  0  0  0
    3.2957   -1.3465   -3.8414 O   0  0  0  0  0  0  0  0  0  0  0  0
    1.6470    1.5536   -5.1783 C   0  0  0  0  0  0  0  0  0  0  0  0
    0.6958    2.4313   -4.4493 C   0  0  0  0  0  0  0  0  0  0  0  0
   -1.0359    3.5008   -2.6279 O   0  0  0  0  0  0  0  0  0  0  0  0
   -3.4532    0.9335   -3.4026 C   0  0  0  0  0  0  0  0  0  0  0  0
   -2.8599    1.3295   -0.2949 O   0  0  0  0  0  0  0  0  0  0  0  0
   -1.0142    4.1088    1.9253 C   0  0  0  0  0  0  0  0  0  0  0  0
    0.1535    3.9090    0.9136 C   0  0  0  0  0  0  0  0  0  0  0  0
    0.8695    2.6475    1.2783 C   0  0  0  0  0  0  0  0  0  0  0  0
    2.0664    2.4390    0.4938 N   0  0  0  0  0  0  0  0  0  0  0  0
    2.9797    3.5930    0.4438 C   0  0  0  0  0  0  0  0  0  0  0  0
    2.2118    4.8943    0.1736 C   0  0  0  0  0  0  0  0  0  0  0  0
    1.0496    5.0364    1.0634 O   0  0  0  0  0  0  0  0  0  0  0  0
   -4.0738    4.2678    2.7503 O   0  0  0  0  0  0  0  0  0  0  0  0
   -4.1980    2.4559    4.9309 C   0  0  0  0  0  0  0  0  0  0  0  0
   -3.4659    2.2996    6.2844 C   0  0  0  0  0  0  0  0  0  0  0  0
   -2.4181    1.1765    6.2735 C   0  0  0  0  0  0  0  0  0  0  0  0
    0.2004   -0.1508    5.8686 O   0  0  0  0  0  0  0  0  0  0  0  0
    2.1975   -1.2469    0.3937 C   0  0  0  0  0  0  0  0  0  0  0  0
    3.4883   -1.4952   -0.0828 C   0  0  0  0  0  0  0  0  0  0  0  0
    4.3545   -0.3886   -0.3833 C   0  0  0  0  0  0  0  0  0  0  0  0
    3.8373    0.9017   -0.1890 C   0  0  0  0  0  0  0  0  0  0  0  0
    2.5415    1.1284    0.2967 C   0  0  0  0  0  0  0  0  0  0  0  0
    1.6982    0.0402    0.5812 C   0  0  0  0  0  0  0  0  0  0  0  0
   -1.2230    1.3659   -5.2686 F   0  0  0  0  0  0  0  0  0  0  0  0
  1  2  1  0  0  0  0
  2  3  1  0  0  0  0
  2  5  1  0  0  0  0
  3  4  1  0  0  0  0
  5  6  4  0  0  0  0
  5 10  4  0  0  0  0
  6  7  4  0  0  0  0
  7  8  4  0  0  0  0
  8  9  4  0  0  0  0
  9 10  4  0  0  0  0
 10 11  1  0  0  0  0
 11 12  4  0  0  0  0
 11 15  4  0  0  0  0
 12 13  1  0  0  0  0
 12 68  4  0  0  0  0
 13 14  1  0  0  0  0
 15 16  1  0  0  0  0
 15 67  4  0  0  0  0
 16 17  1  0  0  0  0
 17 18  1  0  0  0  0
 17 19  1  0  0  0  0
 17 20  1  0  0  0  0
 20 21  1  0  0  0  0
 21 22  1  0  0  0  0
 22 23  1  0  0  0  0
 22 66  2  0  0  0  0
 23 24  1  0  0  0  0
 23 65  1  0  0  0  0
 24 25  1  0  0  0  0
 25 26  1  0  0  0  0
 25 63  1  0  0  0  0
 26 27  1  0  0  0  0
 26 62  2  0  0  0  0
 27 28  1  0  0  0  0
 27 55  1  0  0  0  0
 28 29  1  0  0  0  0
 29 30  1  0  0  0  0
 29 54  2  0  0  0  0
 30 31  1  0  0  0  0
 30 34  1  0  0  0  0
 31 32  1  0  0  0  0
 31 33  1  0  0  0  0
 34 35  1  0  0  0  0
 34 53  1  0  0  0  0
 35 36  1  0  0  0  0
 35 52  2  0  0  0  0
 36 37  1  0  0  0  0
 36 51  1  0  0  0  0
 36 73  1  0  0  0  0
 37 38  1  0  0  0  0
 38 39  1  0  0  0  0
 39 40  1  0  0  0  0
 39 50  1  0  0  0  0
 40 41  1  0  0  0  0
 40 49  2  0  0  0  0
 41 42  1  0  0  0  0
 42 43  1  0  0  0  0
 43 44  1  0  0  0  0
 43 47  1  0  0  0  0
 43 48  1  0  0  0  0
 44 45  1  0  0  0  0
 44 46  1  0  0  0  0
 50 51  1  0  0  0  0
 55 56  1  0  0  0  0
 56 57  1  0  0  0  0
 56 61  1  0  0  0  0
 57 58  1  0  0  0  0
 58 59  1  0  0  0  0
 58 71  1  0  0  0  0
 59 60  1  0  0  0  0
 60 61  1  0  0  0  0
 63 64  1  0  0  0  0
 64 65  1  0  0  0  0
 67 68  4  0  0  0  0
 67 72  4  0  0  0  0
 68 69  4  0  0  0  0
 69 70  4  0  0  0  0
 70 71  4  0  0  0  0
 71 72  4  0  0  0  0
M  END
$$$$
