mol_ETKDG3_162
  PyMOL3.1          3D                             0

 73 79  0  0  0  0  0  0  0  0999 V2000
    4.2215    5.6230    0.4200 C   0  0  0  0  0  0  0  0  0  0  0  0
    4.5348    4.2907   -0.1484 C   0  0  0  0  0  0  0  0  0  0  0  0
    4.4724    4.2044   -1.5543 O   0  0  0  0  0  0  0  0  0  0  0  0
    3.1959    4.2460   -2.1572 C   0  0  0  0  0  0  0  0  0  0  0  0
    5.8649    3.7969    0.2505 C   0  0  0  0  0  0  0  0  0  0  0  0
    6.9228    4.3588   -0.3135 N   0  0  0  0  0  0  0  0  0  0  0  0
    8.1730    4.0029    0.0366 C   0  0  0  0  0  0  0  0  0  0  0  0
    8.4100    3.0306    1.0100 C   0  0  0  0  0  0  0  0  0  0  0  0
    7.3026    2.4335    1.6279 C   0  0  0  0  0  0  0  0  0  0  0  0
    6.0201    2.8017    1.2156 C   0  0  0  0  0  0  0  0  0  0  0  0
    4.8762    2.1312    1.7960 C   0  0  0  0  0  0  0  0  0  0  0  0
    4.2233    2.5814    2.8983 N   0  0  0  0  0  0  0  0  0  0  0  0
    4.5365    3.8012    3.7198 C   0  0  0  0  0  0  0  0  0  0  0  0
    5.2146    3.4820    4.9833 C   0  0  0  0  0  0  0  0  0  0  0  0
    4.2280    0.9782    1.2598 C   0  0  0  0  0  0  0  0  0  0  0  0
    4.5097    0.1725    0.0136 C   0  0  0  0  0  0  0  0  0  0  0  0
    5.4749   -1.0886    0.1817 C   0  0  0  0  0  0  0  0  0  0  0  0
    6.7561   -0.7760    0.9056 C   0  0  0  0  0  0  0  0  0  0  0  0
    5.8996   -1.5128   -1.1978 C   0  0  0  0  0  0  0  0  0  0  0  0
    4.7883   -2.2348    0.9390 C   0  0  0  0  0  0  0  0  0  0  0  0
    3.8619   -3.1018    0.1480 O   0  0  0  0  0  0  0  0  0  0  0  0
    4.0364   -4.5123   -0.0371 C   0  0  0  0  0  0  0  0  0  0  0  0
    2.9010   -5.2968   -0.6659 C   0  0  0  0  0  0  0  0  0  0  0  0
    2.0599   -4.4250   -1.4110 N   0  0  0  0  0  0  0  0  0  0  0  0
    0.9752   -4.9848   -2.0701 N   0  0  0  0  0  0  0  0  0  0  0  0
   -0.2897   -4.5047   -1.8770 C   0  0  0  0  0  0  0  0  0  0  0  0
   -0.4872   -3.3220   -0.9736 C   0  0  0  0  0  0  0  0  0  0  0  0
   -1.4107   -2.3874   -1.5714 N   0  0  0  0  0  0  0  0  0  0  0  0
   -1.0115   -1.3190   -2.2694 C   0  0  0  0  0  0  0  0  0  0  0  0
   -2.0835   -0.3708   -2.7018 C   0  0  0  0  0  0  0  0  0  0  0  0
   -2.5681   -0.4686   -4.1677 C   0  0  0  0  0  0  0  0  0  0  0  0
   -1.8397   -1.3513   -5.0806 C   0  0  0  0  0  0  0  0  0  0  0  0
   -4.0660   -0.5306   -4.2749 C   0  0  0  0  0  0  0  0  0  0  0  0
   -1.6169    0.9687   -2.3643 N   0  0  0  0  0  0  0  0  0  0  0  0
   -1.8509    1.4252   -1.0911 C   0  0  0  0  0  0  0  0  0  0  0  0
   -1.4044    2.7558   -0.5482 C   0  0  0  0  0  0  0  0  0  0  0  0
   -2.3626    3.3042    0.5162 C   0  0  0  0  0  0  0  0  0  0  0  0
   -1.8185    4.5548    1.1381 C   0  0  0  0  0  0  0  0  0  0  0  0
   -0.3941    4.3955    1.5249 N   0  0  0  0  0  0  0  0  0  0  0  0
    0.1471    4.7550    2.7175 C   0  0  0  0  0  0  0  0  0  0  0  0
   -0.4456    4.5638    3.9538 C   0  0  0  0  0  0  0  0  0  0  0  0
   -0.8178    4.4812    5.0577 C   0  0  0  0  0  0  0  0  0  0  0  0
   -1.3974    4.3011    6.3209 C   0  0  0  0  0  0  0  0  0  0  0  0
   -2.5353    5.1395    6.4537 N   0  0  0  0  0  0  0  0  0  0  0  0
   -2.3741    6.5406    6.3562 C   0  0  0  0  0  0  0  0  0  0  0  0
   -3.8081    4.6599    6.7926 C   0  0  0  0  0  0  0  0  0  0  0  0
   -0.3983    4.6375    7.4222 C   0  0  0  0  0  0  0  0  0  0  0  0
   -1.7607    2.8409    6.4911 C   0  0  0  0  0  0  0  0  0  0  0  0
    1.3002    5.2145    2.7118 O   0  0  0  0  0  0  0  0  0  0  0  0
    0.4904    3.8306    0.5615 C   0  0  0  0  0  0  0  0  0  0  0  0
   -0.0258    2.5437    0.0506 C   0  0  0  0  0  0  0  0  0  0  0  0
   -2.4557    0.6649   -0.3061 O   0  0  0  0  0  0  0  0  0  0  0  0
   -0.8256    1.7182   -3.3547 C   0  0  0  0  0  0  0  0  0  0  0  0
    0.1768   -1.0848   -2.3860 O   0  0  0  0  0  0  0  0  0  0  0  0
   -1.0024   -3.7504    0.4613 C   0  0  0  0  0  0  0  0  0  0  0  0
   -1.1725   -2.5654    1.4757 C   0  0  0  0  0  0  0  0  0  0  0  0
    0.1792   -2.1652    1.9595 C   0  0  0  0  0  0  0  0  0  0  0  0
    0.1255   -1.1342    2.9796 N   0  0  0  0  0  0  0  0  0  0  0  0
   -0.7708   -1.4092    4.1050 C   0  0  0  0  0  0  0  0  0  0  0  0
   -2.1187   -1.9690    3.6170 C   0  0  0  0  0  0  0  0  0  0  0  0
   -1.9530   -3.0407    2.6117 O   0  0  0  0  0  0  0  0  0  0  0  0
   -1.2753   -5.0304   -2.4197 O   0  0  0  0  0  0  0  0  0  0  0  0
    1.2924   -6.0540   -3.0224 C   0  0  0  0  0  0  0  0  0  0  0  0
    2.2030   -7.0905   -2.3397 C   0  0  0  0  0  0  0  0  0  0  0  0
    3.3850   -6.4437   -1.6126 C   0  0  0  0  0  0  0  0  0  0  0  0
    5.0718   -5.1373    0.2807 O   0  0  0  0  0  0  0  0  0  0  0  0
    3.1551    0.7697    2.1470 C   0  0  0  0  0  0  0  0  0  0  0  0
    3.1880    1.7617    3.1280 C   0  0  0  0  0  0  0  0  0  0  0  0
    2.1621    1.7895    4.1327 C   0  0  0  0  0  0  0  0  0  0  0  0
    1.1600    0.8092    4.0597 C   0  0  0  0  0  0  0  0  0  0  0  0
    1.1498   -0.1740    3.0542 C   0  0  0  0  0  0  0  0  0  0  0  0
    2.1584   -0.1970    2.0849 C   0  0  0  0  0  0  0  0  0  0  0  0
   -1.3371    3.7123   -1.5257 F   0  0  0  0  0  0  0  0  0  0  0  0
  1  2  1  0  0  0  0
  2  3  1  0  0  0  0
  2  5  1  0  0  0  0
  3  4  1  0  0  0  0
  5  6  4  0  0  0  0
  5 10  4  0  0  0  0
  6  7  4  0  0  0  0
  7  8  4  0  0  0  0
  8  9  4  0  0  0  0
  9 10  4  0  0  0  0
 10 11  1  0  0  0  0
 11 12  4  0  0  0  0
 11 15  4  0  0  0  0
 12 13  1  0  0  0  0
 12 68  4  0  0  0  0
 13 14  1  0  0  0  0
 15 16  1  0  0  0  0
 15 67  4  0  0  0  0
 16 17  1  0  0  0  0
 17 18  1  0  0  0  0
 17 19  1  0  0  0  0
 17 20  1  0  0  0  0
 20 21  1  0  0  0  0
 21 22  1  0  0  0  0
 22 23  1  0  0  0  0
 22 66  2  0  0  0  0
 23 24  1  0  0  0  0
 23 65  1  0  0  0  0
 24 25  1  0  0  0  0
 25 26  1  0  0  0  0
 25 63  1  0  0  0  0
 26 27  1  0  0  0  0
 26 62  2  0  0  0  0
 27 28  1  0  0  0  0
 27 55  1  0  0  0  0
 28 29  1  0  0  0  0
 29 30  1  0  0  0  0
 29 54  2  0  0  0  0
 30 31  1  0  0  0  0
 30 34  1  0  0  0  0
 31 32  1  0  0  0  0
 31 33  1  0  0  0  0
 34 35  1  0  0  0  0
 34 53  1  0  0  0  0
 35 36  1  0  0  0  0
 35 52  2  0  0  0  0
 36 37  1  0  0  0  0
 36 51  1  0  0  0  0
 36 73  1  0  0  0  0
 37 38  1  0  0  0  0
 38 39  1  0  0  0  0
 39 40  1  0  0  0  0
 39 50  1  0  0  0  0
 40 41  1  0  0  0  0
 40 49  2  0  0  0  0
 41 42  1  0  0  0  0
 42 43  1  0  0  0  0
 43 44  1  0  0  0  0
 43 47  1  0  0  0  0
 43 48  1  0  0  0  0
 44 45  1  0  0  0  0
 44 46  1  0  0  0  0
 50 51  1  0  0  0  0
 55 56  1  0  0  0  0
 56 57  1  0  0  0  0
 56 61  1  0  0  0  0
 57 58  1  0  0  0  0
 58 59  1  0  0  0  0
 58 71  1  0  0  0  0
 59 60  1  0  0  0  0
 60 61  1  0  0  0  0
 63 64  1  0  0  0  0
 64 65  1  0  0  0  0
 67 68  4  0  0  0  0
 67 72  4  0  0  0  0
 68 69  4  0  0  0  0
 69 70  4  0  0  0  0
 70 71  4  0  0  0  0
 71 72  4  0  0  0  0
M  END
$$$$
