mol_ETKDG5_298
  PyMOL3.1          3D                             0

 73 79  0  0  0  0  0  0  0  0999 V2000
   -3.4924    3.8375    0.1620 C   0  0  0  0  0  0  0  0  0  0  0  0
   -2.1731    3.7564    0.8273 C   0  0  0  0  0  0  0  0  0  0  0  0
   -1.0749    4.1668    0.0282 O   0  0  0  0  0  0  0  0  0  0  0  0
   -0.6193    3.2800   -0.9588 C   0  0  0  0  0  0  0  0  0  0  0  0
   -2.1172    4.5287    2.0890 C   0  0  0  0  0  0  0  0  0  0  0  0
   -1.8796    5.8249    2.0108 N   0  0  0  0  0  0  0  0  0  0  0  0
   -1.8571    6.6034    3.1154 C   0  0  0  0  0  0  0  0  0  0  0  0
   -2.0914    6.0771    4.3905 C   0  0  0  0  0  0  0  0  0  0  0  0
   -2.3601    4.7062    4.4981 C   0  0  0  0  0  0  0  0  0  0  0  0
   -2.3483    3.9320    3.3307 C   0  0  0  0  0  0  0  0  0  0  0  0
   -2.5679    2.5088    3.4569 C   0  0  0  0  0  0  0  0  0  0  0  0
   -3.7982    1.9365    3.5522 N   0  0  0  0  0  0  0  0  0  0  0  0
   -5.1317    2.6295    3.5142 C   0  0  0  0  0  0  0  0  0  0  0  0
   -5.7870    2.7153    4.8252 C   0  0  0  0  0  0  0  0  0  0  0  0
   -1.5584    1.5122    3.4006 C   0  0  0  0  0  0  0  0  0  0  0  0
   -0.0700    1.6212    3.1671 C   0  0  0  0  0  0  0  0  0  0  0  0
    0.8342    1.8073    4.4571 C   0  0  0  0  0  0  0  0  0  0  0  0
    0.5446    3.0802    5.2123 C   0  0  0  0  0  0  0  0  0  0  0  0
    2.2633    1.9560    4.0011 C   0  0  0  0  0  0  0  0  0  0  0  0
    0.6937    0.6326    5.4044 C   0  0  0  0  0  0  0  0  0  0  0  0
    1.5472   -0.5627    5.0402 O   0  0  0  0  0  0  0  0  0  0  0  0
    2.3726   -1.2714    5.9619 C   0  0  0  0  0  0  0  0  0  0  0  0
    3.1688   -2.4653    5.4617 C   0  0  0  0  0  0  0  0  0  0  0  0
    3.2158   -2.4602    4.0221 N   0  0  0  0  0  0  0  0  0  0  0  0
    3.9483   -3.4706    3.4075 N   0  0  0  0  0  0  0  0  0  0  0  0
    3.3740   -4.2953    2.4790 C   0  0  0  0  0  0  0  0  0  0  0  0
    1.9340   -4.0673    2.1114 C   0  0  0  0  0  0  0  0  0  0  0  0
    1.6745   -4.2902    0.7023 N   0  0  0  0  0  0  0  0  0  0  0  0
    1.4629   -3.2924   -0.1798 C   0  0  0  0  0  0  0  0  0  0  0  0
    1.0388   -3.7128   -1.5517 C   0  0  0  0  0  0  0  0  0  0  0  0
    2.1765   -3.5354   -2.6198 C   0  0  0  0  0  0  0  0  0  0  0  0
    3.5291   -3.8253   -2.1032 C   0  0  0  0  0  0  0  0  0  0  0  0
    1.8743   -4.2551   -3.9048 C   0  0  0  0  0  0  0  0  0  0  0  0
   -0.1615   -2.9057   -1.8602 N   0  0  0  0  0  0  0  0  0  0  0  0
   -1.3887   -3.3191   -1.3774 C   0  0  0  0  0  0  0  0  0  0  0  0
   -2.6801   -2.5420   -1.5396 C   0  0  0  0  0  0  0  0  0  0  0  0
   -2.6485   -1.4303   -0.5154 C   0  0  0  0  0  0  0  0  0  0  0  0
   -3.8372   -0.5556   -0.6245 C   0  0  0  0  0  0  0  0  0  0  0  0
   -5.0716   -1.3426   -0.5354 N   0  0  0  0  0  0  0  0  0  0  0  0
   -6.0870   -0.9183    0.2825 C   0  0  0  0  0  0  0  0  0  0  0  0
   -7.2076   -1.7002    0.5150 C   0  0  0  0  0  0  0  0  0  0  0  0
   -8.2305   -2.2014    0.7137 C   0  0  0  0  0  0  0  0  0  0  0  0
   -9.4066   -2.9664    0.8505 C   0  0  0  0  0  0  0  0  0  0  0  0
  -10.4670   -2.3498    0.1051 N   0  0  0  0  0  0  0  0  0  0  0  0
  -11.2404   -1.3254    0.6917 C   0  0  0  0  0  0  0  0  0  0  0  0
  -10.5541   -2.5020   -1.2926 C   0  0  0  0  0  0  0  0  0  0  0  0
   -9.1559   -4.3882    0.3695 C   0  0  0  0  0  0  0  0  0  0  0  0
   -9.8122   -3.0820    2.3094 C   0  0  0  0  0  0  0  0  0  0  0  0
   -6.0199    0.1774    0.8427 O   0  0  0  0  0  0  0  0  0  0  0  0
   -5.1541   -2.5334   -1.3478 C   0  0  0  0  0  0  0  0  0  0  0  0
   -3.9467   -3.3845   -1.2946 C   0  0  0  0  0  0  0  0  0  0  0  0
   -1.4227   -4.3916   -0.7387 O   0  0  0  0  0  0  0  0  0  0  0  0
    0.0093   -1.6282   -2.5594 C   0  0  0  0  0  0  0  0  0  0  0  0
    1.4941   -2.1288    0.1773 O   0  0  0  0  0  0  0  0  0  0  0  0
    1.0389   -5.0531    2.9689 C   0  0  0  0  0  0  0  0  0  0  0  0
   -0.4870   -4.8518    2.7897 C   0  0  0  0  0  0  0  0  0  0  0  0
   -0.8545   -3.6168    3.5389 C   0  0  0  0  0  0  0  0  0  0  0  0
   -2.2732   -3.3746    3.5176 N   0  0  0  0  0  0  0  0  0  0  0  0
   -3.0957   -4.5094    3.9599 C   0  0  0  0  0  0  0  0  0  0  0  0
   -2.6239   -5.8132    3.2859 C   0  0  0  0  0  0  0  0  0  0  0  0
   -1.1657   -5.9872    3.3969 O   0  0  0  0  0  0  0  0  0  0  0  0
    3.9864   -5.2566    1.9804 O   0  0  0  0  0  0  0  0  0  0  0  0
    5.3621   -3.5442    3.7834 C   0  0  0  0  0  0  0  0  0  0  0  0
    5.4638   -3.5762    5.3308 C   0  0  0  0  0  0  0  0  0  0  0  0
    4.6384   -2.4635    5.9868 C   0  0  0  0  0  0  0  0  0  0  0  0
    2.4823   -0.9859    7.1729 O   0  0  0  0  0  0  0  0  0  0  0  0
   -2.2788    0.3040    3.5266 C   0  0  0  0  0  0  0  0  0  0  0  0
   -3.6370    0.6065    3.6154 C   0  0  0  0  0  0  0  0  0  0  0  0
   -4.5909   -0.4668    3.7128 C   0  0  0  0  0  0  0  0  0  0  0  0
   -4.1011   -1.7766    3.6729 C   0  0  0  0  0  0  0  0  0  0  0  0
   -2.7360   -2.0510    3.5684 C   0  0  0  0  0  0  0  0  0  0  0  0
   -1.8061   -0.9984    3.4976 C   0  0  0  0  0  0  0  0  0  0  0  0
   -2.8104   -2.0741   -2.8314 F   0  0  0  0  0  0  0  0  0  0  0  0
  1  2  1  0  0  0  0
  2  3  1  0  0  0  0
  2  5  1  0  0  0  0
  3  4  1  0  0  0  0
  5  6  4  0  0  0  0
  5 10  4  0  0  0  0
  6  7  4  0  0  0  0
  7  8  4  0  0  0  0
  8  9  4  0  0  0  0
  9 10  4  0  0  0  0
 10 11  1  0  0  0  0
 11 12  4  0  0  0  0
 11 15  4  0  0  0  0
 12 13  1  0  0  0  0
 12 68  4  0  0  0  0
 13 14  1  0  0  0  0
 15 16  1  0  0  0  0
 15 67  4  0  0  0  0
 16 17  1  0  0  0  0
 17 18  1  0  0  0  0
 17 19  1  0  0  0  0
 17 20  1  0  0  0  0
 20 21  1  0  0  0  0
 21 22  1  0  0  0  0
 22 23  1  0  0  0  0
 22 66  2  0  0  0  0
 23 24  1  0  0  0  0
 23 65  1  0  0  0  0
 24 25  1  0  0  0  0
 25 26  1  0  0  0  0
 25 63  1  0  0  0  0
 26 27  1  0  0  0  0
 26 62  2  0  0  0  0
 27 28  1  0  0  0  0
 27 55  1  0  0  0  0
 28 29  1  0  0  0  0
 29 30  1  0  0  0  0
 29 54  2  0  0  0  0
 30 31  1  0  0  0  0
 30 34  1  0  0  0  0
 31 32  1  0  0  0  0
 31 33  1  0  0  0  0
 34 35  1  0  0  0  0
 34 53  1  0  0  0  0
 35 36  1  0  0  0  0
 35 52  2  0  0  0  0
 36 37  1  0  0  0  0
 36 51  1  0  0  0  0
 36 73  1  0  0  0  0
 37 38  1  0  0  0  0
 38 39  1  0  0  0  0
 39 40  1  0  0  0  0
 39 50  1  0  0  0  0
 40 41  1  0  0  0  0
 40 49  2  0  0  0  0
 41 42  1  0  0  0  0
 42 43  1  0  0  0  0
 43 44  1  0  0  0  0
 43 47  1  0  0  0  0
 43 48  1  0  0  0  0
 44 45  1  0  0  0  0
 44 46  1  0  0  0  0
 50 51  1  0  0  0  0
 55 56  1  0  0  0  0
 56 57  1  0  0  0  0
 56 61  1  0  0  0  0
 57 58  1  0  0  0  0
 58 59  1  0  0  0  0
 58 71  1  0  0  0  0
 59 60  1  0  0  0  0
 60 61  1  0  0  0  0
 63 64  1  0  0  0  0
 64 65  1  0  0  0  0
 67 68  4  0  0  0  0
 67 72  4  0  0  0  0
 68 69  4  0  0  0  0
 69 70  4  0  0  0  0
 70 71  4  0  0  0  0
 71 72  4  0  0  0  0
M  END
$$$$
