mol_bioactive_9
  PyMOL3.1          3D                             0

 73 79  0  0  0  0  0  0  0  0999 V2000
   -4.2105   -1.2606    4.2773 C   0  0  0  0  0  0  0  0  0  0  0  0
   -4.1242   -2.6694    3.8643 C   0  0  0  0  0  0  0  0  0  0  0  0
   -5.1242   -3.1037    2.9514 O   0  0  0  0  0  0  0  0  0  0  0  0
   -5.0043   -2.6650    1.6168 C   0  0  0  0  0  0  0  0  0  0  0  0
   -4.1529   -3.5999    5.0079 C   0  0  0  0  0  0  0  0  0  0  0  0
   -5.2318   -3.6123    5.7673 N   0  0  0  0  0  0  0  0  0  0  0  0
   -5.3458   -4.4591    6.8176 C   0  0  0  0  0  0  0  0  0  0  0  0
   -4.3194   -5.3380    7.1657 C   0  0  0  0  0  0  0  0  0  0  0  0
   -3.1711   -5.3495    6.3659 C   0  0  0  0  0  0  0  0  0  0  0  0
   -3.0887   -4.4497    5.2913 C   0  0  0  0  0  0  0  0  0  0  0  0
   -1.8822   -4.4458    4.4927 C   0  0  0  0  0  0  0  0  0  0  0  0
   -1.6308   -5.3493    3.5064 N   0  0  0  0  0  0  0  0  0  0  0  0
   -2.5306   -6.4525    3.0320 C   0  0  0  0  0  0  0  0  0  0  0  0
   -2.0494   -7.7921    3.3699 C   0  0  0  0  0  0  0  0  0  0  0  0
   -0.8363   -3.4775    4.5720 C   0  0  0  0  0  0  0  0  0  0  0  0
   -0.7302   -2.2181    5.3919 C   0  0  0  0  0  0  0  0  0  0  0  0
   -0.0855   -2.3157    6.8317 C   0  0  0  0  0  0  0  0  0  0  0  0
   -0.5587   -3.4887    7.6328 C   0  0  0  0  0  0  0  0  0  0  0  0
   -0.4766   -1.0806    7.6190 C   0  0  0  0  0  0  0  0  0  0  0  0
    1.3853   -2.4103    6.7048 C   0  0  0  0  0  0  0  0  0  0  0  0
    2.1361   -1.1766    6.3187 O   0  0  0  0  0  0  0  0  0  0  0  0
    3.4556   -0.8704    6.7911 C   0  0  0  0  0  0  0  0  0  0  0  0
    4.1740    0.3323    6.2424 C   0  0  0  0  0  0  0  0  0  0  0  0
    3.4107    1.0236    5.2476 N   0  0  0  0  0  0  0  0  0  0  0  0
    3.9831    2.1573    4.6645 N   0  0  0  0  0  0  0  0  0  0  0  0
    4.0979    2.2717    3.2943 C   0  0  0  0  0  0  0  0  0  0  0  0
    3.5953    1.1620    2.4060 C   0  0  0  0  0  0  0  0  0  0  0  0
    2.9862    1.6873    1.1785 N   0  0  0  0  0  0  0  0  0  0  0  0
    1.6692    1.8934    0.9941 C   0  0  0  0  0  0  0  0  0  0  0  0
    1.2380    2.3094   -0.3855 C   0  0  0  0  0  0  0  0  0  0  0  0
    0.7812    3.7990   -0.5169 C   0  0  0  0  0  0  0  0  0  0  0  0
    0.5971    4.2313   -1.9361 C   0  0  0  0  0  0  0  0  0  0  0  0
    1.5992    4.7468    0.2869 C   0  0  0  0  0  0  0  0  0  0  0  0
    0.1920    1.3718   -0.8123 N   0  0  0  0  0  0  0  0  0  0  0  0
    0.5638    0.1811   -1.3899 C   0  0  0  0  0  0  0  0  0  0  0  0
   -0.3915   -0.9176   -1.8144 C   0  0  0  0  0  0  0  0  0  0  0  0
   -0.8793   -1.6209   -0.5707 C   0  0  0  0  0  0  0  0  0  0  0  0
   -1.8307   -2.7270   -0.9042 C   0  0  0  0  0  0  0  0  0  0  0  0
   -1.1761   -3.6707   -1.8191 N   0  0  0  0  0  0  0  0  0  0  0  0
   -1.1198   -5.0141   -1.5156 C   0  0  0  0  0  0  0  0  0  0  0  0
   -0.1807   -5.8784   -2.0810 C   0  0  0  0  0  0  0  0  0  0  0  0
    0.5293   -6.7197   -2.4746 C   0  0  0  0  0  0  0  0  0  0  0  0
    1.4700   -7.6234   -3.0215 C   0  0  0  0  0  0  0  0  0  0  0  0
    0.9890   -8.9667   -2.9094 N   0  0  0  0  0  0  0  0  0  0  0  0
    1.2890   -9.7384   -1.7755 C   0  0  0  0  0  0  0  0  0  0  0  0
   -0.1528   -9.3596   -3.6715 C   0  0  0  0  0  0  0  0  0  0  0  0
    1.7190   -7.2862   -4.4862 C   0  0  0  0  0  0  0  0  0  0  0  0
    2.8005   -7.4664   -2.3151 C   0  0  0  0  0  0  0  0  0  0  0  0
   -1.8863   -5.4725   -0.6781 O   0  0  0  0  0  0  0  0  0  0  0  0
   -0.6074   -3.1049   -3.0078 C   0  0  0  0  0  0  0  0  0  0  0  0
    0.2832   -1.9621   -2.7305 C   0  0  0  0  0  0  0  0  0  0  0  0
    1.7774   -0.0136   -1.5557 O   0  0  0  0  0  0  0  0  0  0  0  0
   -1.2121    1.6892   -0.5032 C   0  0  0  0  0  0  0  0  0  0  0  0
    0.8799    1.6131    1.8699 O   0  0  0  0  0  0  0  0  0  0  0  0
    4.8078    0.2022    2.0368 C   0  0  0  0  0  0  0  0  0  0  0  0
    4.6709   -1.3271    1.7328 C   0  0  0  0  0  0  0  0  0  0  0  0
    3.3628   -1.8750    2.0172 C   0  0  0  0  0  0  0  0  0  0  0  0
    3.1360   -3.2470    1.6389 N   0  0  0  0  0  0  0  0  0  0  0  0
    4.0223   -3.8899    0.7219 C   0  0  0  0  0  0  0  0  0  0  0  0
    5.1025   -3.0579    0.1195 C   0  0  0  0  0  0  0  0  0  0  0  0
    5.0987   -1.6228    0.3857 O   0  0  0  0  0  0  0  0  0  0  0  0
    4.6585    3.2565    2.7768 O   0  0  0  0  0  0  0  0  0  0  0  0
    4.3972    3.2027    5.5974 C   0  0  0  0  0  0  0  0  0  0  0  0
    5.2517    2.5856    6.7302 C   0  0  0  0  0  0  0  0  0  0  0  0
    4.6202    1.3296    7.3352 C   0  0  0  0  0  0  0  0  0  0  0  0
    4.0818   -1.5285    7.6518 O   0  0  0  0  0  0  0  0  0  0  0  0
    0.0760   -3.9078    3.5803 C   0  0  0  0  0  0  0  0  0  0  0  0
   -0.4393   -5.0520    2.9628 C   0  0  0  0  0  0  0  0  0  0  0  0
    0.2991   -5.6615    1.8890 C   0  0  0  0  0  0  0  0  0  0  0  0
    1.4850   -5.0400    1.4814 C   0  0  0  0  0  0  0  0  0  0  0  0
    1.9715   -3.8770    2.1005 C   0  0  0  0  0  0  0  0  0  0  0  0
    1.2695   -3.3220    3.1827 C   0  0  0  0  0  0  0  0  0  0  0  0
   -1.4410   -0.3930   -2.5541 F   0  0  0  0  0  0  0  0  0  0  0  0
  1  2  1  0  0  0  0
  2  3  1  0  0  0  0
  2  5  1  0  0  0  0
  3  4  1  0  0  0  0
  5  6  4  0  0  0  0
  5 10  4  0  0  0  0
  6  7  4  0  0  0  0
  7  8  4  0  0  0  0
  8  9  4  0  0  0  0
  9 10  4  0  0  0  0
 10 11  1  0  0  0  0
 11 12  4  0  0  0  0
 11 15  4  0  0  0  0
 12 13  1  0  0  0  0
 12 68  4  0  0  0  0
 13 14  1  0  0  0  0
 15 16  1  0  0  0  0
 15 67  4  0  0  0  0
 16 17  1  0  0  0  0
 17 18  1  0  0  0  0
 17 19  1  0  0  0  0
 17 20  1  0  0  0  0
 20 21  1  0  0  0  0
 21 22  1  0  0  0  0
 22 23  1  0  0  0  0
 22 66  2  0  0  0  0
 23 24  1  0  0  0  0
 23 65  1  0  0  0  0
 24 25  1  0  0  0  0
 25 26  1  0  0  0  0
 25 63  1  0  0  0  0
 26 27  1  0  0  0  0
 26 62  2  0  0  0  0
 27 28  1  0  0  0  0
 27 55  1  0  0  0  0
 28 29  1  0  0  0  0
 29 30  1  0  0  0  0
 29 54  2  0  0  0  0
 30 31  1  0  0  0  0
 30 34  1  0  0  0  0
 31 32  1  0  0  0  0
 31 33  1  0  0  0  0
 34 35  1  0  0  0  0
 34 53  1  0  0  0  0
 35 36  1  0  0  0  0
 35 52  2  0  0  0  0
 36 37  1  0  0  0  0
 36 51  1  0  0  0  0
 36 73  1  0  0  0  0
 37 38  1  0  0  0  0
 38 39  1  0  0  0  0
 39 40  1  0  0  0  0
 39 50  1  0  0  0  0
 40 41  1  0  0  0  0
 40 49  2  0  0  0  0
 41 42  1  0  0  0  0
 42 43  1  0  0  0  0
 43 44  1  0  0  0  0
 43 47  1  0  0  0  0
 43 48  1  0  0  0  0
 44 45  1  0  0  0  0
 44 46  1  0  0  0  0
 50 51  1  0  0  0  0
 55 56  1  0  0  0  0
 56 57  1  0  0  0  0
 56 61  1  0  0  0  0
 57 58  1  0  0  0  0
 58 59  1  0  0  0  0
 58 71  1  0  0  0  0
 59 60  1  0  0  0  0
 60 61  1  0  0  0  0
 63 64  1  0  0  0  0
 64 65  1  0  0  0  0
 67 68  4  0  0  0  0
 67 72  4  0  0  0  0
 68 69  4  0  0  0  0
 69 70  4  0  0  0  0
 70 71  4  0  0  0  0
 71 72  4  0  0  0  0
M  END
$$$$
