mol_ETKDG4_244
  PyMOL3.1          3D                             0

 73 79  0  0  0  0  0  0  0  0999 V2000
   -1.2893    1.6355   -7.7851 C   0  0  0  0  0  0  0  0  0  0  0  0
   -0.1124    1.2850   -6.9703 C   0  0  0  0  0  0  0  0  0  0  0  0
    0.7191    2.3515   -6.5926 O   0  0  0  0  0  0  0  0  0  0  0  0
    0.2158    3.2848   -5.6681 C   0  0  0  0  0  0  0  0  0  0  0  0
    0.7502    0.2833   -7.6154 C   0  0  0  0  0  0  0  0  0  0  0  0
    1.5063    0.6780   -8.6280 N   0  0  0  0  0  0  0  0  0  0  0  0
    2.2868   -0.1890   -9.2966 C   0  0  0  0  0  0  0  0  0  0  0  0
    2.3224   -1.5470   -8.9638 C   0  0  0  0  0  0  0  0  0  0  0  0
    1.5245   -1.9868   -7.9009 C   0  0  0  0  0  0  0  0  0  0  0  0
    0.7451   -1.0435   -7.2084 C   0  0  0  0  0  0  0  0  0  0  0  0
   -0.0637   -1.4991   -6.1037 C   0  0  0  0  0  0  0  0  0  0  0  0
   -1.2322   -2.1561   -6.2705 N   0  0  0  0  0  0  0  0  0  0  0  0
   -1.9159   -2.5034   -7.5610 C   0  0  0  0  0  0  0  0  0  0  0  0
   -1.8722   -3.9263   -7.8830 C   0  0  0  0  0  0  0  0  0  0  0  0
    0.1824   -1.2617   -4.7203 C   0  0  0  0  0  0  0  0  0  0  0  0
    1.2813   -0.5035   -4.0156 C   0  0  0  0  0  0  0  0  0  0  0  0
    2.5754   -1.3624   -3.6799 C   0  0  0  0  0  0  0  0  0  0  0  0
    3.5892   -0.4478   -3.0165 C   0  0  0  0  0  0  0  0  0  0  0  0
    3.2514   -1.8402   -4.9192 C   0  0  0  0  0  0  0  0  0  0  0  0
    2.2685   -2.5481   -2.7860 C   0  0  0  0  0  0  0  0  0  0  0  0
    2.2096   -2.2958   -1.3066 O   0  0  0  0  0  0  0  0  0  0  0  0
    2.8345   -3.1326   -0.3223 C   0  0  0  0  0  0  0  0  0  0  0  0
    2.6582   -2.8073    1.1466 C   0  0  0  0  0  0  0  0  0  0  0  0
    2.1908   -1.4712    1.3182 N   0  0  0  0  0  0  0  0  0  0  0  0
    2.0329   -1.0045    2.6203 N   0  0  0  0  0  0  0  0  0  0  0  0
    0.8608   -0.4570    3.0363 C   0  0  0  0  0  0  0  0  0  0  0  0
   -0.2560   -0.3584    2.0565 C   0  0  0  0  0  0  0  0  0  0  0  0
   -1.0392    0.8403    2.2527 N   0  0  0  0  0  0  0  0  0  0  0  0
   -0.9166    1.9337    1.5032 C   0  0  0  0  0  0  0  0  0  0  0  0
   -1.9380    2.9969    1.7235 C   0  0  0  0  0  0  0  0  0  0  0  0
   -1.4563    4.1993    2.5781 C   0  0  0  0  0  0  0  0  0  0  0  0
   -2.5784    4.9237    3.2484 C   0  0  0  0  0  0  0  0  0  0  0  0
   -0.3089    3.9089    3.4713 C   0  0  0  0  0  0  0  0  0  0  0  0
   -2.4144    3.3838    0.3950 N   0  0  0  0  0  0  0  0  0  0  0  0
   -3.3779    2.6076   -0.1892 C   0  0  0  0  0  0  0  0  0  0  0  0
   -3.8639    2.7670   -1.6086 C   0  0  0  0  0  0  0  0  0  0  0  0
   -2.8375    2.0698   -2.4766 C   0  0  0  0  0  0  0  0  0  0  0  0
   -3.2260    2.1265   -3.9175 C   0  0  0  0  0  0  0  0  0  0  0  0
   -4.5548    1.5250   -4.0675 N   0  0  0  0  0  0  0  0  0  0  0  0
   -4.7302    0.4711   -4.9335 C   0  0  0  0  0  0  0  0  0  0  0  0
   -5.6824   -0.5053   -4.7211 C   0  0  0  0  0  0  0  0  0  0  0  0
   -6.4336   -1.3773   -4.6582 C   0  0  0  0  0  0  0  0  0  0  0  0
   -7.4501   -2.3044   -4.3884 C   0  0  0  0  0  0  0  0  0  0  0  0
   -8.5628   -2.0420   -5.2251 N   0  0  0  0  0  0  0  0  0  0  0  0
   -9.8768   -2.0622   -4.7479 C   0  0  0  0  0  0  0  0  0  0  0  0
   -8.3849   -2.0497   -6.6318 C   0  0  0  0  0  0  0  0  0  0  0  0
   -6.9944   -3.7419   -4.6199 C   0  0  0  0  0  0  0  0  0  0  0  0
   -7.7966   -2.2046   -2.9150 C   0  0  0  0  0  0  0  0  0  0  0  0
   -3.9859    0.3296   -5.9002 O   0  0  0  0  0  0  0  0  0  0  0  0
   -5.6018    2.0817   -3.2547 C   0  0  0  0  0  0  0  0  0  0  0  0
   -5.2389    2.1119   -1.8155 C   0  0  0  0  0  0  0  0  0  0  0  0
   -3.8502    1.6712    0.4853 O   0  0  0  0  0  0  0  0  0  0  0  0
   -1.7503    4.4985   -0.3061 C   0  0  0  0  0  0  0  0  0  0  0  0
   -0.0966    1.9733    0.5946 O   0  0  0  0  0  0  0  0  0  0  0  0
   -1.2091   -1.6034    2.2151 C   0  0  0  0  0  0  0  0  0  0  0  0
   -2.3456   -1.6466    1.1751 C   0  0  0  0  0  0  0  0  0  0  0  0
   -1.8045   -2.3157   -0.0248 C   0  0  0  0  0  0  0  0  0  0  0  0
   -2.8078   -2.4784   -1.0261 N   0  0  0  0  0  0  0  0  0  0  0  0
   -4.0640   -3.1010   -0.5747 C   0  0  0  0  0  0  0  0  0  0  0  0
   -4.5374   -2.4879    0.7436 C   0  0  0  0  0  0  0  0  0  0  0  0
   -3.4462   -2.4169    1.7210 O   0  0  0  0  0  0  0  0  0  0  0  0
    0.6813   -0.0799    4.2123 O   0  0  0  0  0  0  0  0  0  0  0  0
    3.2105   -1.0738    3.4733 C   0  0  0  0  0  0  0  0  0  0  0  0
    3.8030   -2.4890    3.4054 C   0  0  0  0  0  0  0  0  0  0  0  0
    3.9760   -2.9737    1.9584 C   0  0  0  0  0  0  0  0  0  0  0  0
    3.5252   -4.1435   -0.5892 O   0  0  0  0  0  0  0  0  0  0  0  0
   -0.9159   -1.8491   -4.0832 C   0  0  0  0  0  0  0  0  0  0  0  0
   -1.7480   -2.3913   -5.0612 C   0  0  0  0  0  0  0  0  0  0  0  0
   -2.9549   -3.0426   -4.6725 C   0  0  0  0  0  0  0  0  0  0  0  0
   -3.2606   -3.0531   -3.3148 C   0  0  0  0  0  0  0  0  0  0  0  0
   -2.4384   -2.4715   -2.3595 C   0  0  0  0  0  0  0  0  0  0  0  0
   -1.2289   -1.8696   -2.7377 C   0  0  0  0  0  0  0  0  0  0  0  0
   -4.0255    4.0919   -1.9581 F   0  0  0  0  0  0  0  0  0  0  0  0
  1  2  1  0  0  0  0
  2  3  1  0  0  0  0
  2  5  1  0  0  0  0
  3  4  1  0  0  0  0
  5  6  4  0  0  0  0
  5 10  4  0  0  0  0
  6  7  4  0  0  0  0
  7  8  4  0  0  0  0
  8  9  4  0  0  0  0
  9 10  4  0  0  0  0
 10 11  1  0  0  0  0
 11 12  4  0  0  0  0
 11 15  4  0  0  0  0
 12 13  1  0  0  0  0
 12 68  4  0  0  0  0
 13 14  1  0  0  0  0
 15 16  1  0  0  0  0
 15 67  4  0  0  0  0
 16 17  1  0  0  0  0
 17 18  1  0  0  0  0
 17 19  1  0  0  0  0
 17 20  1  0  0  0  0
 20 21  1  0  0  0  0
 21 22  1  0  0  0  0
 22 23  1  0  0  0  0
 22 66  2  0  0  0  0
 23 24  1  0  0  0  0
 23 65  1  0  0  0  0
 24 25  1  0  0  0  0
 25 26  1  0  0  0  0
 25 63  1  0  0  0  0
 26 27  1  0  0  0  0
 26 62  2  0  0  0  0
 27 28  1  0  0  0  0
 27 55  1  0  0  0  0
 28 29  1  0  0  0  0
 29 30  1  0  0  0  0
 29 54  2  0  0  0  0
 30 31  1  0  0  0  0
 30 34  1  0  0  0  0
 31 32  1  0  0  0  0
 31 33  1  0  0  0  0
 34 35  1  0  0  0  0
 34 53  1  0  0  0  0
 35 36  1  0  0  0  0
 35 52  2  0  0  0  0
 36 37  1  0  0  0  0
 36 51  1  0  0  0  0
 36 73  1  0  0  0  0
 37 38  1  0  0  0  0
 38 39  1  0  0  0  0
 39 40  1  0  0  0  0
 39 50  1  0  0  0  0
 40 41  1  0  0  0  0
 40 49  2  0  0  0  0
 41 42  1  0  0  0  0
 42 43  1  0  0  0  0
 43 44  1  0  0  0  0
 43 47  1  0  0  0  0
 43 48  1  0  0  0  0
 44 45  1  0  0  0  0
 44 46  1  0  0  0  0
 50 51  1  0  0  0  0
 55 56  1  0  0  0  0
 56 57  1  0  0  0  0
 56 61  1  0  0  0  0
 57 58  1  0  0  0  0
 58 59  1  0  0  0  0
 58 71  1  0  0  0  0
 59 60  1  0  0  0  0
 60 61  1  0  0  0  0
 63 64  1  0  0  0  0
 64 65  1  0  0  0  0
 67 68  4  0  0  0  0
 67 72  4  0  0  0  0
 68 69  4  0  0  0  0
 69 70  4  0  0  0  0
 70 71  4  0  0  0  0
 71 72  4  0  0  0  0
M  END
$$$$
