mol_bioactive_8
  PyMOL3.1          3D                             0

 73 79  0  0  0  0  0  0  0  0999 V2000
   -4.5985   -3.8152   -1.8742 C   0  0  0  0  0  0  0  0  0  0  0  0
   -4.7950   -3.7485   -3.2627 C   0  0  0  0  0  0  0  0  0  0  0  0
   -6.1116   -4.1420   -3.6386 O   0  0  0  0  0  0  0  0  0  0  0  0
   -7.2005   -3.5590   -3.0139 C   0  0  0  0  0  0  0  0  0  0  0  0
   -3.8314   -4.4580   -4.1314 C   0  0  0  0  0  0  0  0  0  0  0  0
   -4.3391   -5.3458   -4.9520 N   0  0  0  0  0  0  0  0  0  0  0  0
   -3.5851   -6.0081   -5.8373 C   0  0  0  0  0  0  0  0  0  0  0  0
   -2.2177   -5.8022   -5.9228 C   0  0  0  0  0  0  0  0  0  0  0  0
   -1.6392   -4.8856   -5.0578 C   0  0  0  0  0  0  0  0  0  0  0  0
   -2.4480   -4.2354   -4.1304 C   0  0  0  0  0  0  0  0  0  0  0  0
   -1.7915   -3.3337   -3.2201 C   0  0  0  0  0  0  0  0  0  0  0  0
   -1.4934   -2.0597   -3.5408 N   0  0  0  0  0  0  0  0  0  0  0  0
   -1.8517   -1.3397   -4.8038 C   0  0  0  0  0  0  0  0  0  0  0  0
   -0.7463   -1.1601   -5.7282 C   0  0  0  0  0  0  0  0  0  0  0  0
   -1.3750   -3.6243   -1.8875 C   0  0  0  0  0  0  0  0  0  0  0  0
   -1.6190   -4.8050   -0.9952 C   0  0  0  0  0  0  0  0  0  0  0  0
   -0.6701   -6.0385   -1.0718 C   0  0  0  0  0  0  0  0  0  0  0  0
   -1.2912   -7.1724   -0.2569 C   0  0  0  0  0  0  0  0  0  0  0  0
   -0.5288   -6.5839   -2.4355 C   0  0  0  0  0  0  0  0  0  0  0  0
    0.6755   -5.6704   -0.5101 C   0  0  0  0  0  0  0  0  0  0  0  0
    0.8108   -5.7242    0.9737 O   0  0  0  0  0  0  0  0  0  0  0  0
    1.9154   -6.3069    1.6536 C   0  0  0  0  0  0  0  0  0  0  0  0
    1.9663   -6.1861    3.1546 C   0  0  0  0  0  0  0  0  0  0  0  0
    0.7535   -5.6571    3.6609 N   0  0  0  0  0  0  0  0  0  0  0  0
    0.6142   -5.5157    5.0274 N   0  0  0  0  0  0  0  0  0  0  0  0
    0.2260   -4.3218    5.5638 C   0  0  0  0  0  0  0  0  0  0  0  0
   -0.0087   -3.1457    4.6540 C   0  0  0  0  0  0  0  0  0  0  0  0
   -1.0987   -2.3164    5.1163 N   0  0  0  0  0  0  0  0  0  0  0  0
   -2.3725   -2.4281    4.7569 C   0  0  0  0  0  0  0  0  0  0  0  0
   -3.3010   -1.3770    5.2721 C   0  0  0  0  0  0  0  0  0  0  0  0
   -4.1825   -1.8560    6.4709 C   0  0  0  0  0  0  0  0  0  0  0  0
   -5.0461   -0.7834    7.0427 C   0  0  0  0  0  0  0  0  0  0  0  0
   -3.3890   -2.5741    7.5195 C   0  0  0  0  0  0  0  0  0  0  0  0
   -4.0719   -0.9182    4.1222 N   0  0  0  0  0  0  0  0  0  0  0  0
   -3.5273    0.0382    3.2991 C   0  0  0  0  0  0  0  0  0  0  0  0
   -4.1822    0.5340    2.0362 C   0  0  0  0  0  0  0  0  0  0  0  0
   -3.9566   -0.5131    0.9741 C   0  0  0  0  0  0  0  0  0  0  0  0
   -4.5740   -0.1230   -0.3114 C   0  0  0  0  0  0  0  0  0  0  0  0
   -4.0853    1.1948   -0.7109 N   0  0  0  0  0  0  0  0  0  0  0  0
   -3.5677    1.3991   -1.9530 C   0  0  0  0  0  0  0  0  0  0  0  0
   -2.8372    2.5389   -2.2253 C   0  0  0  0  0  0  0  0  0  0  0  0
   -2.2746    3.4732   -2.5620 C   0  0  0  0  0  0  0  0  0  0  0  0
   -1.6238    4.6954   -2.7664 C   0  0  0  0  0  0  0  0  0  0  0  0
   -2.5177    5.6224   -3.3809 N   0  0  0  0  0  0  0  0  0  0  0  0
   -2.4276    6.9981   -3.1682 C   0  0  0  0  0  0  0  0  0  0  0  0
   -3.3247    5.1892   -4.4671 C   0  0  0  0  0  0  0  0  0  0  0  0
   -1.1486    5.2056   -1.4130 C   0  0  0  0  0  0  0  0  0  0  0  0
   -0.3969    4.5280   -3.6425 C   0  0  0  0  0  0  0  0  0  0  0  0
   -3.7121    0.5595   -2.8325 O   0  0  0  0  0  0  0  0  0  0  0  0
   -4.1588    2.2436    0.2649 C   0  0  0  0  0  0  0  0  0  0  0  0
   -3.5806    1.8597    1.5508 C   0  0  0  0  0  0  0  0  0  0  0  0
   -2.4140    0.4920    3.6042 O   0  0  0  0  0  0  0  0  0  0  0  0
   -5.3364   -1.5998    3.8036 C   0  0  0  0  0  0  0  0  0  0  0  0
   -2.7045   -3.2746    3.9480 O   0  0  0  0  0  0  0  0  0  0  0  0
    1.3003   -2.2733    4.5857 C   0  0  0  0  0  0  0  0  0  0  0  0
    1.6039   -1.2899    3.4259 C   0  0  0  0  0  0  0  0  0  0  0  0
    0.7980   -1.5215    2.2534 C   0  0  0  0  0  0  0  0  0  0  0  0
    0.8822   -0.5549    1.2071 N   0  0  0  0  0  0  0  0  0  0  0  0
    1.5361    0.6938    1.4427 C   0  0  0  0  0  0  0  0  0  0  0  0
    1.8808    1.0232    2.8491 C   0  0  0  0  0  0  0  0  0  0  0  0
    1.5435    0.0668    3.8831 O   0  0  0  0  0  0  0  0  0  0  0  0
    0.1188   -4.1767    6.7925 O   0  0  0  0  0  0  0  0  0  0  0  0
    0.8558   -6.7139    5.8203 C   0  0  0  0  0  0  0  0  0  0  0  0
    2.1723   -7.3802    5.3837 C   0  0  0  0  0  0  0  0  0  0  0  0
    2.2769   -7.5217    3.8702 C   0  0  0  0  0  0  0  0  0  0  0  0
    2.8555   -6.9154    1.1072 O   0  0  0  0  0  0  0  0  0  0  0  0
   -0.7652   -2.4357   -1.4704 C   0  0  0  0  0  0  0  0  0  0  0  0
   -0.8551   -1.5080   -2.5017 C   0  0  0  0  0  0  0  0  0  0  0  0
   -0.3237   -0.1975   -2.3014 C   0  0  0  0  0  0  0  0  0  0  0  0
    0.2377    0.0851   -1.0549 C   0  0  0  0  0  0  0  0  0  0  0  0
    0.3163   -0.8645   -0.0327 C   0  0  0  0  0  0  0  0  0  0  0  0
   -0.1854   -2.1506   -0.2490 C   0  0  0  0  0  0  0  0  0  0  0  0
   -5.5223    0.7823    2.2449 F   0  0  0  0  0  0  0  0  0  0  0  0
  1  2  1  0  0  0  0
  2  3  1  0  0  0  0
  2  5  1  0  0  0  0
  3  4  1  0  0  0  0
  5  6  4  0  0  0  0
  5 10  4  0  0  0  0
  6  7  4  0  0  0  0
  7  8  4  0  0  0  0
  8  9  4  0  0  0  0
  9 10  4  0  0  0  0
 10 11  1  0  0  0  0
 11 12  4  0  0  0  0
 11 15  4  0  0  0  0
 12 13  1  0  0  0  0
 12 68  4  0  0  0  0
 13 14  1  0  0  0  0
 15 16  1  0  0  0  0
 15 67  4  0  0  0  0
 16 17  1  0  0  0  0
 17 18  1  0  0  0  0
 17 19  1  0  0  0  0
 17 20  1  0  0  0  0
 20 21  1  0  0  0  0
 21 22  1  0  0  0  0
 22 23  1  0  0  0  0
 22 66  2  0  0  0  0
 23 24  1  0  0  0  0
 23 65  1  0  0  0  0
 24 25  1  0  0  0  0
 25 26  1  0  0  0  0
 25 63  1  0  0  0  0
 26 27  1  0  0  0  0
 26 62  2  0  0  0  0
 27 28  1  0  0  0  0
 27 55  1  0  0  0  0
 28 29  1  0  0  0  0
 29 30  1  0  0  0  0
 29 54  2  0  0  0  0
 30 31  1  0  0  0  0
 30 34  1  0  0  0  0
 31 32  1  0  0  0  0
 31 33  1  0  0  0  0
 34 35  1  0  0  0  0
 34 53  1  0  0  0  0
 35 36  1  0  0  0  0
 35 52  2  0  0  0  0
 36 37  1  0  0  0  0
 36 51  1  0  0  0  0
 36 73  1  0  0  0  0
 37 38  1  0  0  0  0
 38 39  1  0  0  0  0
 39 40  1  0  0  0  0
 39 50  1  0  0  0  0
 40 41  1  0  0  0  0
 40 49  2  0  0  0  0
 41 42  1  0  0  0  0
 42 43  1  0  0  0  0
 43 44  1  0  0  0  0
 43 47  1  0  0  0  0
 43 48  1  0  0  0  0
 44 45  1  0  0  0  0
 44 46  1  0  0  0  0
 50 51  1  0  0  0  0
 55 56  1  0  0  0  0
 56 57  1  0  0  0  0
 56 61  1  0  0  0  0
 57 58  1  0  0  0  0
 58 59  1  0  0  0  0
 58 71  1  0  0  0  0
 59 60  1  0  0  0  0
 60 61  1  0  0  0  0
 63 64  1  0  0  0  0
 64 65  1  0  0  0  0
 67 68  4  0  0  0  0
 67 72  4  0  0  0  0
 68 69  4  0  0  0  0
 69 70  4  0  0  0  0
 70 71  4  0  0  0  0
 71 72  4  0  0  0  0
M  END
$$$$
