mol_ETKDG2_101
  PyMOL3.1          3D                             0

 73 79  0  0  0  0  0  0  0  0999 V2000
   -3.4603    3.8249    1.0838 C   0  0  0  0  0  0  0  0  0  0  0  0
   -2.7743    3.1346    2.2036 C   0  0  0  0  0  0  0  0  0  0  0  0
   -3.5433    2.1198    2.8298 O   0  0  0  0  0  0  0  0  0  0  0  0
   -3.6990    0.9129    2.1115 C   0  0  0  0  0  0  0  0  0  0  0  0
   -2.3704    4.0851    3.2568 C   0  0  0  0  0  0  0  0  0  0  0  0
   -3.3159    4.5635    4.0447 N   0  0  0  0  0  0  0  0  0  0  0  0
   -3.0350    5.4929    4.9795 C   0  0  0  0  0  0  0  0  0  0  0  0
   -1.7373    5.9910    5.1525 C   0  0  0  0  0  0  0  0  0  0  0  0
   -0.7226    5.4985    4.3176 C   0  0  0  0  0  0  0  0  0  0  0  0
   -1.0442    4.5129    3.3868 C   0  0  0  0  0  0  0  0  0  0  0  0
    0.0115    3.9664    2.5563 C   0  0  0  0  0  0  0  0  0  0  0  0
    0.4991    4.5838    1.4431 N   0  0  0  0  0  0  0  0  0  0  0  0
    0.0535    5.8872    0.8602 C   0  0  0  0  0  0  0  0  0  0  0  0
    1.0295    6.9571    1.0437 C   0  0  0  0  0  0  0  0  0  0  0  0
    0.6270    2.6964    2.7257 C   0  0  0  0  0  0  0  0  0  0  0  0
    0.3788    1.6065    3.7424 C   0  0  0  0  0  0  0  0  0  0  0  0
    1.1851    1.7337    5.1118 C   0  0  0  0  0  0  0  0  0  0  0  0
    0.5960    0.7190    6.0925 C   0  0  0  0  0  0  0  0  0  0  0  0
    1.0106    3.0335    5.7672 C   0  0  0  0  0  0  0  0  0  0  0  0
    2.6509    1.4644    4.9329 C   0  0  0  0  0  0  0  0  0  0  0  0
    3.0242    0.0315    4.7487 O   0  0  0  0  0  0  0  0  0  0  0  0
    4.2532   -0.5439    5.1592 C   0  0  0  0  0  0  0  0  0  0  0  0
    4.4999   -2.0075    4.8517 C   0  0  0  0  0  0  0  0  0  0  0  0
    3.3235   -2.5818    4.2646 N   0  0  0  0  0  0  0  0  0  0  0  0
    3.3739   -3.9266    3.9346 N   0  0  0  0  0  0  0  0  0  0  0  0
    3.1354   -4.3418    2.6512 C   0  0  0  0  0  0  0  0  0  0  0  0
    2.8478   -3.3008    1.6087 C   0  0  0  0  0  0  0  0  0  0  0  0
    1.8199   -3.6941    0.6664 N   0  0  0  0  0  0  0  0  0  0  0  0
    0.5566   -3.2232    0.7082 C   0  0  0  0  0  0  0  0  0  0  0  0
   -0.3243   -3.5798   -0.4434 C   0  0  0  0  0  0  0  0  0  0  0  0
   -1.2174   -4.8210   -0.2486 C   0  0  0  0  0  0  0  0  0  0  0  0
   -1.8023   -5.3545   -1.4972 C   0  0  0  0  0  0  0  0  0  0  0  0
   -0.7226   -5.8438    0.6999 C   0  0  0  0  0  0  0  0  0  0  0  0
   -1.1278   -2.4018   -0.7660 N   0  0  0  0  0  0  0  0  0  0  0  0
   -0.6013   -1.4571   -1.6326 C   0  0  0  0  0  0  0  0  0  0  0  0
   -1.2770   -0.1514   -1.9920 C   0  0  0  0  0  0  0  0  0  0  0  0
   -1.1739    0.2265   -3.4691 C   0  0  0  0  0  0  0  0  0  0  0  0
   -1.7852    1.5820   -3.7148 C   0  0  0  0  0  0  0  0  0  0  0  0
   -1.3602    2.5922   -2.7071 N   0  0  0  0  0  0  0  0  0  0  0  0
   -1.0733    3.9070   -2.9361 C   0  0  0  0  0  0  0  0  0  0  0  0
   -0.9164    4.4978   -4.1795 C   0  0  0  0  0  0  0  0  0  0  0  0
   -0.7397    5.1616   -5.1283 C   0  0  0  0  0  0  0  0  0  0  0  0
   -0.4725    5.7483   -6.3680 C   0  0  0  0  0  0  0  0  0  0  0  0
    0.3183    4.8683   -7.1260 N   0  0  0  0  0  0  0  0  0  0  0  0
    1.6369    4.6443   -6.7279 C   0  0  0  0  0  0  0  0  0  0  0  0
   -0.1241    4.3033   -8.3205 C   0  0  0  0  0  0  0  0  0  0  0  0
   -1.7843    6.0729   -7.0569 C   0  0  0  0  0  0  0  0  0  0  0  0
    0.2896    7.0637   -6.2413 C   0  0  0  0  0  0  0  0  0  0  0  0
   -0.9234    4.6520   -1.9427 O   0  0  0  0  0  0  0  0  0  0  0  0
   -1.2841    2.1816   -1.3602 C   0  0  0  0  0  0  0  0  0  0  0  0
   -0.6247    0.9223   -1.1476 C   0  0  0  0  0  0  0  0  0  0  0  0
    0.5288   -1.6735   -2.1148 O   0  0  0  0  0  0  0  0  0  0  0  0
   -2.4076   -2.2197   -0.0759 C   0  0  0  0  0  0  0  0  0  0  0  0
    0.2072   -2.4631    1.5940 O   0  0  0  0  0  0  0  0  0  0  0  0
    4.1708   -2.9804    0.8007 C   0  0  0  0  0  0  0  0  0  0  0  0
    4.0213   -1.8252   -0.2285 C   0  0  0  0  0  0  0  0  0  0  0  0
    3.9816   -0.5583    0.5419 C   0  0  0  0  0  0  0  0  0  0  0  0
    3.8862    0.5934   -0.3159 N   0  0  0  0  0  0  0  0  0  0  0  0
    4.8915    0.6726   -1.3746 C   0  0  0  0  0  0  0  0  0  0  0  0
    5.0835   -0.6978   -2.0622 C   0  0  0  0  0  0  0  0  0  0  0  0
    5.1917   -1.8042   -1.0975 O   0  0  0  0  0  0  0  0  0  0  0  0
    3.1976   -5.5376    2.3308 O   0  0  0  0  0  0  0  0  0  0  0  0
    3.6465   -4.8392    5.0475 C   0  0  0  0  0  0  0  0  0  0  0  0
    4.9145   -4.3477    5.7943 C   0  0  0  0  0  0  0  0  0  0  0  0
    4.8615   -2.8440    6.1148 C   0  0  0  0  0  0  0  0  0  0  0  0
    5.1518    0.0611    5.7657 O   0  0  0  0  0  0  0  0  0  0  0  0
    1.5293    2.6140    1.6402 C   0  0  0  0  0  0  0  0  0  0  0  0
    1.4274    3.7838    0.8899 C   0  0  0  0  0  0  0  0  0  0  0  0
    2.2173    3.9247   -0.2968 C   0  0  0  0  0  0  0  0  0  0  0  0
    3.0343    2.8499   -0.6591 C   0  0  0  0  0  0  0  0  0  0  0  0
    3.1048    1.6773    0.0973 C   0  0  0  0  0  0  0  0  0  0  0  0
    2.3545    1.5593    1.2773 C   0  0  0  0  0  0  0  0  0  0  0  0
   -2.6123   -0.1548   -1.7330 F   0  0  0  0  0  0  0  0  0  0  0  0
  1  2  1  0  0  0  0
  2  3  1  0  0  0  0
  2  5  1  0  0  0  0
  3  4  1  0  0  0  0
  5  6  4  0  0  0  0
  5 10  4  0  0  0  0
  6  7  4  0  0  0  0
  7  8  4  0  0  0  0
  8  9  4  0  0  0  0
  9 10  4  0  0  0  0
 10 11  1  0  0  0  0
 11 12  4  0  0  0  0
 11 15  4  0  0  0  0
 12 13  1  0  0  0  0
 12 68  4  0  0  0  0
 13 14  1  0  0  0  0
 15 16  1  0  0  0  0
 15 67  4  0  0  0  0
 16 17  1  0  0  0  0
 17 18  1  0  0  0  0
 17 19  1  0  0  0  0
 17 20  1  0  0  0  0
 20 21  1  0  0  0  0
 21 22  1  0  0  0  0
 22 23  1  0  0  0  0
 22 66  2  0  0  0  0
 23 24  1  0  0  0  0
 23 65  1  0  0  0  0
 24 25  1  0  0  0  0
 25 26  1  0  0  0  0
 25 63  1  0  0  0  0
 26 27  1  0  0  0  0
 26 62  2  0  0  0  0
 27 28  1  0  0  0  0
 27 55  1  0  0  0  0
 28 29  1  0  0  0  0
 29 30  1  0  0  0  0
 29 54  2  0  0  0  0
 30 31  1  0  0  0  0
 30 34  1  0  0  0  0
 31 32  1  0  0  0  0
 31 33  1  0  0  0  0
 34 35  1  0  0  0  0
 34 53  1  0  0  0  0
 35 36  1  0  0  0  0
 35 52  2  0  0  0  0
 36 37  1  0  0  0  0
 36 51  1  0  0  0  0
 36 73  1  0  0  0  0
 37 38  1  0  0  0  0
 38 39  1  0  0  0  0
 39 40  1  0  0  0  0
 39 50  1  0  0  0  0
 40 41  1  0  0  0  0
 40 49  2  0  0  0  0
 41 42  1  0  0  0  0
 42 43  1  0  0  0  0
 43 44  1  0  0  0  0
 43 47  1  0  0  0  0
 43 48  1  0  0  0  0
 44 45  1  0  0  0  0
 44 46  1  0  0  0  0
 50 51  1  0  0  0  0
 55 56  1  0  0  0  0
 56 57  1  0  0  0  0
 56 61  1  0  0  0  0
 57 58  1  0  0  0  0
 58 59  1  0  0  0  0
 58 71  1  0  0  0  0
 59 60  1  0  0  0  0
 60 61  1  0  0  0  0
 63 64  1  0  0  0  0
 64 65  1  0  0  0  0
 67 68  4  0  0  0  0
 67 72  4  0  0  0  0
 68 69  4  0  0  0  0
 69 70  4  0  0  0  0
 70 71  4  0  0  0  0
 71 72  4  0  0  0  0
M  END
$$$$
