mol_ETKDG0_322
  PyMOL3.1          3D                             0

 73 79  0  0  0  0  0  0  0  0999 V2000
    1.7128    5.8966   -1.6132 C   0  0  0  0  0  0  0  0  0  0  0  0
    0.8404    4.7827   -2.0633 C   0  0  0  0  0  0  0  0  0  0  0  0
   -0.4365    5.1628   -2.5200 O   0  0  0  0  0  0  0  0  0  0  0  0
   -1.3700    5.5713   -1.5491 C   0  0  0  0  0  0  0  0  0  0  0  0
    1.4565    3.9906   -3.1445 C   0  0  0  0  0  0  0  0  0  0  0  0
    1.5146    4.5283   -4.3526 N   0  0  0  0  0  0  0  0  0  0  0  0
    2.1121    3.8872   -5.3786 C   0  0  0  0  0  0  0  0  0  0  0  0
    2.7023    2.6308   -5.2141 C   0  0  0  0  0  0  0  0  0  0  0  0
    2.6595    2.0428   -3.9441 C   0  0  0  0  0  0  0  0  0  0  0  0
    1.9969    2.7351   -2.9119 C   0  0  0  0  0  0  0  0  0  0  0  0
    1.9017    2.0958   -1.6223 C   0  0  0  0  0  0  0  0  0  0  0  0
    2.8804    2.1634   -0.6877 N   0  0  0  0  0  0  0  0  0  0  0  0
    4.1928    2.8905   -0.7799 C   0  0  0  0  0  0  0  0  0  0  0  0
    5.3132    1.9818   -1.0840 C   0  0  0  0  0  0  0  0  0  0  0  0
    0.7762    1.3853   -1.1263 C   0  0  0  0  0  0  0  0  0  0  0  0
   -0.5854    1.1328   -1.7250 C   0  0  0  0  0  0  0  0  0  0  0  0
   -0.7345   -0.1583   -2.6431 C   0  0  0  0  0  0  0  0  0  0  0  0
   -2.1855   -0.2278   -3.0942 C   0  0  0  0  0  0  0  0  0  0  0  0
    0.0407   -0.0502   -3.9060 C   0  0  0  0  0  0  0  0  0  0  0  0
   -0.3602   -1.4498   -1.9326 C   0  0  0  0  0  0  0  0  0  0  0  0
   -1.4546   -2.0871   -1.1098 O   0  0  0  0  0  0  0  0  0  0  0  0
   -1.6942   -3.4898   -1.0276 C   0  0  0  0  0  0  0  0  0  0  0  0
   -2.8353   -3.9881   -0.1498 C   0  0  0  0  0  0  0  0  0  0  0  0
   -3.6936   -2.9004    0.2012 N   0  0  0  0  0  0  0  0  0  0  0  0
   -4.8005   -3.1856    1.0010 N   0  0  0  0  0  0  0  0  0  0  0  0
   -5.0051   -2.5426    2.1943 C   0  0  0  0  0  0  0  0  0  0  0  0
   -3.9850   -1.5379    2.6351 C   0  0  0  0  0  0  0  0  0  0  0  0
   -4.5893   -0.3958    3.2970 N   0  0  0  0  0  0  0  0  0  0  0  0
   -4.7689    0.7966    2.7010 C   0  0  0  0  0  0  0  0  0  0  0  0
   -5.2419    1.8972    3.5892 C   0  0  0  0  0  0  0  0  0  0  0  0
   -6.7484    2.2861    3.4017 C   0  0  0  0  0  0  0  0  0  0  0  0
   -7.2302    3.2285    4.4619 C   0  0  0  0  0  0  0  0  0  0  0  0
   -7.6345    1.0836    3.2547 C   0  0  0  0  0  0  0  0  0  0  0  0
   -4.3411    3.0228    3.3616 N   0  0  0  0  0  0  0  0  0  0  0  0
   -3.1623    3.0485    4.0658 C   0  0  0  0  0  0  0  0  0  0  0  0
   -2.0859    4.0844    3.8800 C   0  0  0  0  0  0  0  0  0  0  0  0
   -1.0547    4.0721    5.0136 C   0  0  0  0  0  0  0  0  0  0  0  0
    0.0690    5.0079    4.7274 C   0  0  0  0  0  0  0  0  0  0  0  0
    0.6211    4.7591    3.3850 N   0  0  0  0  0  0  0  0  0  0  0  0
    1.9460    4.5466    3.1589 C   0  0  0  0  0  0  0  0  0  0  0  0
    2.7661    4.0837    4.1638 C   0  0  0  0  0  0  0  0  0  0  0  0
    3.5066    3.7267    4.9697 C   0  0  0  0  0  0  0  0  0  0  0  0
    4.2028    3.2853    6.1155 C   0  0  0  0  0  0  0  0  0  0  0  0
    4.0574    4.2703    7.1428 N   0  0  0  0  0  0  0  0  0  0  0  0
    2.9246    4.2604    7.9661 C   0  0  0  0  0  0  0  0  0  0  0  0
    4.8612    5.4273    7.1298 C   0  0  0  0  0  0  0  0  0  0  0  0
    5.6563    3.0559    5.8058 C   0  0  0  0  0  0  0  0  0  0  0  0
    3.6402    1.9447    6.5814 C   0  0  0  0  0  0  0  0  0  0  0  0
    2.4079    4.7090    2.0137 O   0  0  0  0  0  0  0  0  0  0  0  0
   -0.3076    4.7112    2.2954 C   0  0  0  0  0  0  0  0  0  0  0  0
   -1.3830    3.7348    2.5793 C   0  0  0  0  0  0  0  0  0  0  0  0
   -2.9620    2.1350    4.8906 O   0  0  0  0  0  0  0  0  0  0  0  0
   -4.6698    3.9981    2.3095 C   0  0  0  0  0  0  0  0  0  0  0  0
   -4.4340    0.9719    1.5408 O   0  0  0  0  0  0  0  0  0  0  0  0
   -2.9859   -2.2536    3.6277 C   0  0  0  0  0  0  0  0  0  0  0  0
   -1.8010   -1.3866    4.1162 C   0  0  0  0  0  0  0  0  0  0  0  0
   -0.8414   -1.2868    2.9842 C   0  0  0  0  0  0  0  0  0  0  0  0
    0.3635   -0.5985    3.3570 N   0  0  0  0  0  0  0  0  0  0  0  0
    1.0297   -1.1171    4.5608 C   0  0  0  0  0  0  0  0  0  0  0  0
    0.0104   -1.3272    5.6900 C   0  0  0  0  0  0  0  0  0  0  0  0
   -1.1612   -2.0881    5.2195 O   0  0  0  0  0  0  0  0  0  0  0  0
   -5.9679   -2.8056    2.9311 O   0  0  0  0  0  0  0  0  0  0  0  0
   -5.7401   -4.1604    0.4462 C   0  0  0  0  0  0  0  0  0  0  0  0
   -4.9490   -5.4190    0.0186 C   0  0  0  0  0  0  0  0  0  0  0  0
   -3.7110   -5.0819   -0.8357 C   0  0  0  0  0  0  0  0  0  0  0  0
   -1.0159   -4.3518   -1.6214 O   0  0  0  0  0  0  0  0  0  0  0  0
    1.1808    1.0019    0.1655 C   0  0  0  0  0  0  0  0  0  0  0  0
    2.4655    1.4935    0.3914 C   0  0  0  0  0  0  0  0  0  0  0  0
    3.0990    1.2598    1.6519 C   0  0  0  0  0  0  0  0  0  0  0  0
    2.3624    0.5588    2.6101 C   0  0  0  0  0  0  0  0  0  0  0  0
    1.0720    0.0871    2.3673 C   0  0  0  0  0  0  0  0  0  0  0  0
    0.4622    0.3114    1.1241 C   0  0  0  0  0  0  0  0  0  0  0  0
   -2.6241    5.3551    3.8302 F   0  0  0  0  0  0  0  0  0  0  0  0
  1  2  1  0  0  0  0
  2  3  1  0  0  0  0
  2  5  1  0  0  0  0
  3  4  1  0  0  0  0
  5  6  4  0  0  0  0
  5 10  4  0  0  0  0
  6  7  4  0  0  0  0
  7  8  4  0  0  0  0
  8  9  4  0  0  0  0
  9 10  4  0  0  0  0
 10 11  1  0  0  0  0
 11 12  4  0  0  0  0
 11 15  4  0  0  0  0
 12 13  1  0  0  0  0
 12 68  4  0  0  0  0
 13 14  1  0  0  0  0
 15 16  1  0  0  0  0
 15 67  4  0  0  0  0
 16 17  1  0  0  0  0
 17 18  1  0  0  0  0
 17 19  1  0  0  0  0
 17 20  1  0  0  0  0
 20 21  1  0  0  0  0
 21 22  1  0  0  0  0
 22 23  1  0  0  0  0
 22 66  2  0  0  0  0
 23 24  1  0  0  0  0
 23 65  1  0  0  0  0
 24 25  1  0  0  0  0
 25 26  1  0  0  0  0
 25 63  1  0  0  0  0
 26 27  1  0  0  0  0
 26 62  2  0  0  0  0
 27 28  1  0  0  0  0
 27 55  1  0  0  0  0
 28 29  1  0  0  0  0
 29 30  1  0  0  0  0
 29 54  2  0  0  0  0
 30 31  1  0  0  0  0
 30 34  1  0  0  0  0
 31 32  1  0  0  0  0
 31 33  1  0  0  0  0
 34 35  1  0  0  0  0
 34 53  1  0  0  0  0
 35 36  1  0  0  0  0
 35 52  2  0  0  0  0
 36 37  1  0  0  0  0
 36 51  1  0  0  0  0
 36 73  1  0  0  0  0
 37 38  1  0  0  0  0
 38 39  1  0  0  0  0
 39 40  1  0  0  0  0
 39 50  1  0  0  0  0
 40 41  1  0  0  0  0
 40 49  2  0  0  0  0
 41 42  1  0  0  0  0
 42 43  1  0  0  0  0
 43 44  1  0  0  0  0
 43 47  1  0  0  0  0
 43 48  1  0  0  0  0
 44 45  1  0  0  0  0
 44 46  1  0  0  0  0
 50 51  1  0  0  0  0
 55 56  1  0  0  0  0
 56 57  1  0  0  0  0
 56 61  1  0  0  0  0
 57 58  1  0  0  0  0
 58 59  1  0  0  0  0
 58 71  1  0  0  0  0
 59 60  1  0  0  0  0
 60 61  1  0  0  0  0
 63 64  1  0  0  0  0
 64 65  1  0  0  0  0
 67 68  4  0  0  0  0
 67 72  4  0  0  0  0
 68 69  4  0  0  0  0
 69 70  4  0  0  0  0
 70 71  4  0  0  0  0
 71 72  4  0  0  0  0
M  END
$$$$
