mol_ETKDG3_194
  PyMOL3.1          3D                             0

 73 79  0  0  0  0  0  0  0  0999 V2000
    2.0112   -0.1963   -3.2433 C   0  0  0  0  0  0  0  0  0  0  0  0
    0.8592    0.6390   -3.6566 C   0  0  0  0  0  0  0  0  0  0  0  0
    1.1653    2.0000   -3.9088 O   0  0  0  0  0  0  0  0  0  0  0  0
    1.3175    2.8355   -2.8003 C   0  0  0  0  0  0  0  0  0  0  0  0
    0.2024    0.1294   -4.8663 C   0  0  0  0  0  0  0  0  0  0  0  0
    0.7311    0.4395   -6.0316 N   0  0  0  0  0  0  0  0  0  0  0  0
    0.2148   -0.0350   -7.1829 C   0  0  0  0  0  0  0  0  0  0  0  0
   -0.8951   -0.8818   -7.1905 C   0  0  0  0  0  0  0  0  0  0  0  0
   -1.4580   -1.2371   -5.9625 C   0  0  0  0  0  0  0  0  0  0  0  0
   -0.9078   -0.6950   -4.7873 C   0  0  0  0  0  0  0  0  0  0  0  0
   -1.5192   -1.0250   -3.5209 C   0  0  0  0  0  0  0  0  0  0  0  0
   -1.2943   -2.1831   -2.8582 N   0  0  0  0  0  0  0  0  0  0  0  0
   -0.3725   -3.2963   -3.2551 C   0  0  0  0  0  0  0  0  0  0  0  0
   -1.0794   -4.4576   -3.8009 C   0  0  0  0  0  0  0  0  0  0  0  0
   -2.3618   -0.1764   -2.7577 C   0  0  0  0  0  0  0  0  0  0  0  0
   -2.7860    1.2457   -2.9942 C   0  0  0  0  0  0  0  0  0  0  0  0
   -4.1293    1.4428   -3.7961 C   0  0  0  0  0  0  0  0  0  0  0  0
   -4.2898    0.4823   -4.9348 C   0  0  0  0  0  0  0  0  0  0  0  0
   -4.1139    2.8224   -4.4149 C   0  0  0  0  0  0  0  0  0  0  0  0
   -5.2989    1.2461   -2.8740 C   0  0  0  0  0  0  0  0  0  0  0  0
   -5.5210    2.3007   -1.8185 O   0  0  0  0  0  0  0  0  0  0  0  0
   -6.7949    2.9123   -1.5708 C   0  0  0  0  0  0  0  0  0  0  0  0
   -6.9735    3.8213   -0.3850 C   0  0  0  0  0  0  0  0  0  0  0  0
   -5.7404    4.0807    0.2784 N   0  0  0  0  0  0  0  0  0  0  0  0
   -5.8041    4.9142    1.3973 N   0  0  0  0  0  0  0  0  0  0  0  0
   -5.2748    4.5318    2.5956 C   0  0  0  0  0  0  0  0  0  0  0  0
   -4.5150    3.2478    2.6933 C   0  0  0  0  0  0  0  0  0  0  0  0
   -3.3901    3.3958    3.5917 N   0  0  0  0  0  0  0  0  0  0  0  0
   -2.1611    3.7423    3.1882 C   0  0  0  0  0  0  0  0  0  0  0  0
   -1.0979    3.7163    4.2322 C   0  0  0  0  0  0  0  0  0  0  0  0
   -0.5582    5.1325    4.6349 C   0  0  0  0  0  0  0  0  0  0  0  0
    0.3764    5.0749    5.8046 C   0  0  0  0  0  0  0  0  0  0  0  0
   -1.6700    6.1180    4.8467 C   0  0  0  0  0  0  0  0  0  0  0  0
   -0.0591    2.8315    3.7438 N   0  0  0  0  0  0  0  0  0  0  0  0
   -0.1954    1.4979    3.9693 C   0  0  0  0  0  0  0  0  0  0  0  0
    0.7529    0.4433    3.4849 C   0  0  0  0  0  0  0  0  0  0  0  0
    0.4260    0.1756    2.0346 C   0  0  0  0  0  0  0  0  0  0  0  0
    1.3388   -0.8701    1.4765 C   0  0  0  0  0  0  0  0  0  0  0  0
    1.1969   -2.0750    2.2905 N   0  0  0  0  0  0  0  0  0  0  0  0
    0.8340   -3.2528    1.7080 C   0  0  0  0  0  0  0  0  0  0  0  0
    0.0137   -4.1771    2.3223 C   0  0  0  0  0  0  0  0  0  0  0  0
   -0.6510   -5.0264    2.7279 C   0  0  0  0  0  0  0  0  0  0  0  0
   -1.4803   -5.9292    3.4241 C   0  0  0  0  0  0  0  0  0  0  0  0
   -0.7158   -6.5892    4.4202 N   0  0  0  0  0  0  0  0  0  0  0  0
   -0.4421   -5.9368    5.6290 C   0  0  0  0  0  0  0  0  0  0  0  0
   -0.0024   -7.7644    4.1377 C   0  0  0  0  0  0  0  0  0  0  0  0
   -2.0937   -6.9198    2.4679 C   0  0  0  0  0  0  0  0  0  0  0  0
   -2.6441   -5.1846    4.0689 C   0  0  0  0  0  0  0  0  0  0  0  0
    1.1808   -3.4797    0.5554 O   0  0  0  0  0  0  0  0  0  0  0  0
    1.4409   -1.9324    3.6975 C   0  0  0  0  0  0  0  0  0  0  0  0
    0.6112   -0.8593    4.2841 C   0  0  0  0  0  0  0  0  0  0  0  0
   -1.1996    1.1272    4.6083 O   0  0  0  0  0  0  0  0  0  0  0  0
    1.0244    3.3903    2.9132 C   0  0  0  0  0  0  0  0  0  0  0  0
   -1.9313    3.9296    2.0086 O   0  0  0  0  0  0  0  0  0  0  0  0
   -5.4393    2.0762    3.2175 C   0  0  0  0  0  0  0  0  0  0  0  0
   -4.7462    0.6831    3.2069 C   0  0  0  0  0  0  0  0  0  0  0  0
   -4.7667    0.1873    1.8065 C   0  0  0  0  0  0  0  0  0  0  0  0
   -4.2167   -1.1422    1.6863 N   0  0  0  0  0  0  0  0  0  0  0  0
   -4.7766   -2.1357    2.5946 C   0  0  0  0  0  0  0  0  0  0  0  0
   -4.9032   -1.5716    4.0183 C   0  0  0  0  0  0  0  0  0  0  0  0
   -5.5152   -0.2294    4.0332 O   0  0  0  0  0  0  0  0  0  0  0  0
   -5.4244    5.2279    3.6216 O   0  0  0  0  0  0  0  0  0  0  0  0
   -6.3910    6.2296    1.1812 C   0  0  0  0  0  0  0  0  0  0  0  0
   -7.7361    6.0870    0.4540 C   0  0  0  0  0  0  0  0  0  0  0  0
   -7.6484    5.1617   -0.7528 C   0  0  0  0  0  0  0  0  0  0  0  0
   -7.8059    2.7618   -2.2931 O   0  0  0  0  0  0  0  0  0  0  0  0
   -2.6650   -0.9415   -1.6192 C   0  0  0  0  0  0  0  0  0  0  0  0
   -1.9944   -2.1555   -1.7173 C   0  0  0  0  0  0  0  0  0  0  0  0
   -2.0973   -3.1036   -0.6530 C   0  0  0  0  0  0  0  0  0  0  0  0
   -2.8564   -2.7369    0.4566 C   0  0  0  0  0  0  0  0  0  0  0  0
   -3.5034   -1.5011    0.5441 C   0  0  0  0  0  0  0  0  0  0  0  0
   -3.4230   -0.5928   -0.5148 C   0  0  0  0  0  0  0  0  0  0  0  0
    2.0647    0.8406    3.6515 F   0  0  0  0  0  0  0  0  0  0  0  0
  1  2  1  0  0  0  0
  2  3  1  0  0  0  0
  2  5  1  0  0  0  0
  3  4  1  0  0  0  0
  5  6  4  0  0  0  0
  5 10  4  0  0  0  0
  6  7  4  0  0  0  0
  7  8  4  0  0  0  0
  8  9  4  0  0  0  0
  9 10  4  0  0  0  0
 10 11  1  0  0  0  0
 11 12  4  0  0  0  0
 11 15  4  0  0  0  0
 12 13  1  0  0  0  0
 12 68  4  0  0  0  0
 13 14  1  0  0  0  0
 15 16  1  0  0  0  0
 15 67  4  0  0  0  0
 16 17  1  0  0  0  0
 17 18  1  0  0  0  0
 17 19  1  0  0  0  0
 17 20  1  0  0  0  0
 20 21  1  0  0  0  0
 21 22  1  0  0  0  0
 22 23  1  0  0  0  0
 22 66  2  0  0  0  0
 23 24  1  0  0  0  0
 23 65  1  0  0  0  0
 24 25  1  0  0  0  0
 25 26  1  0  0  0  0
 25 63  1  0  0  0  0
 26 27  1  0  0  0  0
 26 62  2  0  0  0  0
 27 28  1  0  0  0  0
 27 55  1  0  0  0  0
 28 29  1  0  0  0  0
 29 30  1  0  0  0  0
 29 54  2  0  0  0  0
 30 31  1  0  0  0  0
 30 34  1  0  0  0  0
 31 32  1  0  0  0  0
 31 33  1  0  0  0  0
 34 35  1  0  0  0  0
 34 53  1  0  0  0  0
 35 36  1  0  0  0  0
 35 52  2  0  0  0  0
 36 37  1  0  0  0  0
 36 51  1  0  0  0  0
 36 73  1  0  0  0  0
 37 38  1  0  0  0  0
 38 39  1  0  0  0  0
 39 40  1  0  0  0  0
 39 50  1  0  0  0  0
 40 41  1  0  0  0  0
 40 49  2  0  0  0  0
 41 42  1  0  0  0  0
 42 43  1  0  0  0  0
 43 44  1  0  0  0  0
 43 47  1  0  0  0  0
 43 48  1  0  0  0  0
 44 45  1  0  0  0  0
 44 46  1  0  0  0  0
 50 51  1  0  0  0  0
 55 56  1  0  0  0  0
 56 57  1  0  0  0  0
 56 61  1  0  0  0  0
 57 58  1  0  0  0  0
 58 59  1  0  0  0  0
 58 71  1  0  0  0  0
 59 60  1  0  0  0  0
 60 61  1  0  0  0  0
 63 64  1  0  0  0  0
 64 65  1  0  0  0  0
 67 68  4  0  0  0  0
 67 72  4  0  0  0  0
 68 69  4  0  0  0  0
 69 70  4  0  0  0  0
 70 71  4  0  0  0  0
 71 72  4  0  0  0  0
M  END
$$$$
