mol_bioactive_50
  PyMOL3.1          3D                             0

 73 79  0  0  0  0  0  0  0  0999 V2000
   -2.0574    2.9332   -2.1202 C   0  0  0  0  0  0  0  0  0  0  0  0
   -0.9776    2.4738   -2.9929 C   0  0  0  0  0  0  0  0  0  0  0  0
   -0.6926    1.0632   -2.9095 O   0  0  0  0  0  0  0  0  0  0  0  0
   -1.7305    0.1538   -3.2467 C   0  0  0  0  0  0  0  0  0  0  0  0
    0.3169    3.1380   -2.8498 C   0  0  0  0  0  0  0  0  0  0  0  0
    0.6459    3.4791   -4.0822 N   0  0  0  0  0  0  0  0  0  0  0  0
    1.6946    4.2288   -4.3482 C   0  0  0  0  0  0  0  0  0  0  0  0
    2.4943    4.7337   -3.3439 C   0  0  0  0  0  0  0  0  0  0  0  0
    2.1864    4.4100   -2.0141 C   0  0  0  0  0  0  0  0  0  0  0  0
    1.0924    3.5839   -1.7486 C   0  0  0  0  0  0  0  0  0  0  0  0
    0.8302    3.2161   -0.3582 C   0  0  0  0  0  0  0  0  0  0  0  0
    0.2632    4.0502    0.5554 N   0  0  0  0  0  0  0  0  0  0  0  0
   -0.2271    5.4482    0.3229 C   0  0  0  0  0  0  0  0  0  0  0  0
    0.6220    6.4807    0.8965 C   0  0  0  0  0  0  0  0  0  0  0  0
    1.0947    1.9496    0.2492 C   0  0  0  0  0  0  0  0  0  0  0  0
    1.6435    0.6734   -0.3435 C   0  0  0  0  0  0  0  0  0  0  0  0
    3.2247    0.5132   -0.2697 C   0  0  0  0  0  0  0  0  0  0  0  0
    3.6342   -0.6228   -1.2026 C   0  0  0  0  0  0  0  0  0  0  0  0
    3.9457    1.7067   -0.7698 C   0  0  0  0  0  0  0  0  0  0  0  0
    3.6761    0.2247    1.1558 C   0  0  0  0  0  0  0  0  0  0  0  0
    3.4912   -1.1817    1.6453 O   0  0  0  0  0  0  0  0  0  0  0  0
    4.5016   -1.9312    2.3299 C   0  0  0  0  0  0  0  0  0  0  0  0
    4.1588   -3.3191    2.8375 C   0  0  0  0  0  0  0  0  0  0  0  0
    2.8168   -3.6563    2.4880 N   0  0  0  0  0  0  0  0  0  0  0  0
    2.3290   -4.8955    2.8697 N   0  0  0  0  0  0  0  0  0  0  0  0
    1.1580   -4.9918    3.5765 C   0  0  0  0  0  0  0  0  0  0  0  0
    0.3675   -3.7401    3.8921 C   0  0  0  0  0  0  0  0  0  0  0  0
   -1.0629   -3.9920    3.7725 N   0  0  0  0  0  0  0  0  0  0  0  0
   -1.7810   -3.7434    2.6720 C   0  0  0  0  0  0  0  0  0  0  0  0
   -3.2659   -3.9410    2.7522 C   0  0  0  0  0  0  0  0  0  0  0  0
   -3.8003   -5.3010    2.2447 C   0  0  0  0  0  0  0  0  0  0  0  0
   -4.9853   -5.8059    2.9846 C   0  0  0  0  0  0  0  0  0  0  0  0
   -2.8057   -6.3232    1.8699 C   0  0  0  0  0  0  0  0  0  0  0  0
   -3.8747   -2.8033    2.0533 N   0  0  0  0  0  0  0  0  0  0  0  0
   -4.0103   -1.6149    2.7494 C   0  0  0  0  0  0  0  0  0  0  0  0
   -4.5172   -0.3144    2.1671 C   0  0  0  0  0  0  0  0  0  0  0  0
   -5.1193    0.6165    3.2284 C   0  0  0  0  0  0  0  0  0  0  0  0
   -5.4652    1.9503    2.6614 C   0  0  0  0  0  0  0  0  0  0  0  0
   -4.3652    2.5105    1.8561 N   0  0  0  0  0  0  0  0  0  0  0  0
   -3.9206    3.7952    1.9530 C   0  0  0  0  0  0  0  0  0  0  0  0
   -4.0966    4.5602    3.0921 C   0  0  0  0  0  0  0  0  0  0  0  0
   -4.1965    5.3090    3.9725 C   0  0  0  0  0  0  0  0  0  0  0  0
   -4.3627    6.0742    5.1397 C   0  0  0  0  0  0  0  0  0  0  0  0
   -4.7369    7.4323    4.8834 N   0  0  0  0  0  0  0  0  0  0  0  0
   -4.8338    8.3608    5.9281 C   0  0  0  0  0  0  0  0  0  0  0  0
   -5.1605    7.8656    3.6229 C   0  0  0  0  0  0  0  0  0  0  0  0
   -3.0465    6.0395    5.9057 C   0  0  0  0  0  0  0  0  0  0  0  0
   -5.4288    5.4188    6.0030 C   0  0  0  0  0  0  0  0  0  0  0  0
   -3.2704    4.2810    1.0143 O   0  0  0  0  0  0  0  0  0  0  0  0
   -3.7287    1.6466    0.9153 C   0  0  0  0  0  0  0  0  0  0  0  0
   -3.3215    0.3676    1.5252 C   0  0  0  0  0  0  0  0  0  0  0  0
   -3.6475   -1.6081    3.9368 O   0  0  0  0  0  0  0  0  0  0  0  0
   -4.1921   -2.9309    0.6248 C   0  0  0  0  0  0  0  0  0  0  0  0
   -1.2252   -3.2560    1.7000 O   0  0  0  0  0  0  0  0  0  0  0  0
    0.6963   -3.2052    5.3472 C   0  0  0  0  0  0  0  0  0  0  0  0
    0.5883   -1.6918    5.7374 C   0  0  0  0  0  0  0  0  0  0  0  0
    0.3122   -0.8110    4.5848 C   0  0  0  0  0  0  0  0  0  0  0  0
    0.0481    0.5740    4.8911 N   0  0  0  0  0  0  0  0  0  0  0  0
   -0.3421    0.9366    6.2186 C   0  0  0  0  0  0  0  0  0  0  0  0
   -0.5105   -0.1515    7.2207 C   0  0  0  0  0  0  0  0  0  0  0  0
   -0.4254   -1.5256    6.7611 O   0  0  0  0  0  0  0  0  0  0  0  0
    0.7508   -6.0906    3.9857 O   0  0  0  0  0  0  0  0  0  0  0  0
    3.1266   -6.0488    2.4332 C   0  0  0  0  0  0  0  0  0  0  0  0
    4.6249   -5.8171    2.7180 C   0  0  0  0  0  0  0  0  0  0  0  0
    5.1116   -4.4250    2.3099 C   0  0  0  0  0  0  0  0  0  0  0  0
    5.6528   -1.5276    2.5510 O   0  0  0  0  0  0  0  0  0  0  0  0
    0.6548    2.1052    1.5817 C   0  0  0  0  0  0  0  0  0  0  0  0
    0.1631    3.3948    1.7296 C   0  0  0  0  0  0  0  0  0  0  0  0
   -0.3658    3.7888    3.0047 C   0  0  0  0  0  0  0  0  0  0  0  0
   -0.3859    2.8294    4.0315 C   0  0  0  0  0  0  0  0  0  0  0  0
    0.0994    1.5251    3.8561 C   0  0  0  0  0  0  0  0  0  0  0  0
    0.6409    1.1616    2.6156 C   0  0  0  0  0  0  0  0  0  0  0  0
   -5.5023   -0.5160    1.2293 F   0  0  0  0  0  0  0  0  0  0  0  0
  1  2  1  0  0  0  0
  2  3  1  0  0  0  0
  2  5  1  0  0  0  0
  3  4  1  0  0  0  0
  5  6  4  0  0  0  0
  5 10  4  0  0  0  0
  6  7  4  0  0  0  0
  7  8  4  0  0  0  0
  8  9  4  0  0  0  0
  9 10  4  0  0  0  0
 10 11  1  0  0  0  0
 11 12  4  0  0  0  0
 11 15  4  0  0  0  0
 12 13  1  0  0  0  0
 12 68  4  0  0  0  0
 13 14  1  0  0  0  0
 15 16  1  0  0  0  0
 15 67  4  0  0  0  0
 16 17  1  0  0  0  0
 17 18  1  0  0  0  0
 17 19  1  0  0  0  0
 17 20  1  0  0  0  0
 20 21  1  0  0  0  0
 21 22  1  0  0  0  0
 22 23  1  0  0  0  0
 22 66  2  0  0  0  0
 23 24  1  0  0  0  0
 23 65  1  0  0  0  0
 24 25  1  0  0  0  0
 25 26  1  0  0  0  0
 25 63  1  0  0  0  0
 26 27  1  0  0  0  0
 26 62  2  0  0  0  0
 27 28  1  0  0  0  0
 27 55  1  0  0  0  0
 28 29  1  0  0  0  0
 29 30  1  0  0  0  0
 29 54  2  0  0  0  0
 30 31  1  0  0  0  0
 30 34  1  0  0  0  0
 31 32  1  0  0  0  0
 31 33  1  0  0  0  0
 34 35  1  0  0  0  0
 34 53  1  0  0  0  0
 35 36  1  0  0  0  0
 35 52  2  0  0  0  0
 36 37  1  0  0  0  0
 36 51  1  0  0  0  0
 36 73  1  0  0  0  0
 37 38  1  0  0  0  0
 38 39  1  0  0  0  0
 39 40  1  0  0  0  0
 39 50  1  0  0  0  0
 40 41  1  0  0  0  0
 40 49  2  0  0  0  0
 41 42  1  0  0  0  0
 42 43  1  0  0  0  0
 43 44  1  0  0  0  0
 43 47  1  0  0  0  0
 43 48  1  0  0  0  0
 44 45  1  0  0  0  0
 44 46  1  0  0  0  0
 50 51  1  0  0  0  0
 55 56  1  0  0  0  0
 56 57  1  0  0  0  0
 56 61  1  0  0  0  0
 57 58  1  0  0  0  0
 58 59  1  0  0  0  0
 58 71  1  0  0  0  0
 59 60  1  0  0  0  0
 60 61  1  0  0  0  0
 63 64  1  0  0  0  0
 64 65  1  0  0  0  0
 67 68  4  0  0  0  0
 67 72  4  0  0  0  0
 68 69  4  0  0  0  0
 69 70  4  0  0  0  0
 70 71  4  0  0  0  0
 71 72  4  0  0  0  0
M  END
$$$$
