mol_bioactive_7
  PyMOL3.1          3D                             0

 73 79  0  0  0  0  0  0  0  0999 V2000
   -5.8608    5.6436   -1.1739 C   0  0  0  0  0  0  0  0  0  0  0  0
   -5.5442    5.9625   -2.5791 C   0  0  0  0  0  0  0  0  0  0  0  0
   -5.0984    4.8758   -3.3529 O   0  0  0  0  0  0  0  0  0  0  0  0
   -5.9407    3.7510   -3.4984 C   0  0  0  0  0  0  0  0  0  0  0  0
   -4.5842    7.0439   -2.8091 C   0  0  0  0  0  0  0  0  0  0  0  0
   -5.3324    7.9588   -3.3918 N   0  0  0  0  0  0  0  0  0  0  0  0
   -4.8742    9.1409   -3.7148 C   0  0  0  0  0  0  0  0  0  0  0  0
   -3.5823    9.5093   -3.4392 C   0  0  0  0  0  0  0  0  0  0  0  0
   -2.7406    8.5883   -2.8192 C   0  0  0  0  0  0  0  0  0  0  0  0
   -3.2347    7.3308   -2.5112 C   0  0  0  0  0  0  0  0  0  0  0  0
   -2.2955    6.3960   -1.9234 C   0  0  0  0  0  0  0  0  0  0  0  0
   -1.9279    6.4439   -0.6178 N   0  0  0  0  0  0  0  0  0  0  0  0
   -2.4734    7.3307    0.4597 C   0  0  0  0  0  0  0  0  0  0  0  0
   -1.5749    8.4157    0.8499 C   0  0  0  0  0  0  0  0  0  0  0  0
   -1.5957    5.3526   -2.5947 C   0  0  0  0  0  0  0  0  0  0  0  0
   -1.7367    4.7969   -3.9859 C   0  0  0  0  0  0  0  0  0  0  0  0
   -0.8655    5.4601   -5.1216 C   0  0  0  0  0  0  0  0  0  0  0  0
   -1.2413    4.7768   -6.4313 C   0  0  0  0  0  0  0  0  0  0  0  0
   -1.1887    6.8914   -5.3215 C   0  0  0  0  0  0  0  0  0  0  0  0
    0.6280    5.3010   -4.8567 C   0  0  0  0  0  0  0  0  0  0  0  0
    1.2471    3.9907   -5.2380 O   0  0  0  0  0  0  0  0  0  0  0  0
    2.4294    3.8435   -6.0207 C   0  0  0  0  0  0  0  0  0  0  0  0
    2.9305    2.4368   -6.3149 C   0  0  0  0  0  0  0  0  0  0  0  0
    1.9021    1.4692   -6.0610 N   0  0  0  0  0  0  0  0  0  0  0  0
    2.1501    0.1342   -6.3585 N   0  0  0  0  0  0  0  0  0  0  0  0
    1.9380   -0.8457   -5.4291 C   0  0  0  0  0  0  0  0  0  0  0  0
    1.4749   -0.4503   -4.0494 C   0  0  0  0  0  0  0  0  0  0  0  0
    0.4797   -1.3825   -3.5160 N   0  0  0  0  0  0  0  0  0  0  0  0
   -0.8470   -1.2007   -3.5561 C   0  0  0  0  0  0  0  0  0  0  0  0
   -1.6947   -2.1964   -2.8296 C   0  0  0  0  0  0  0  0  0  0  0  0
   -2.2610   -3.3742   -3.6591 C   0  0  0  0  0  0  0  0  0  0  0  0
   -2.6577   -4.5431   -2.8285 C   0  0  0  0  0  0  0  0  0  0  0  0
   -1.5096   -3.7208   -4.8849 C   0  0  0  0  0  0  0  0  0  0  0  0
   -2.7652   -1.4596   -2.1688 N   0  0  0  0  0  0  0  0  0  0  0  0
   -2.5160   -0.8992   -0.9397 C   0  0  0  0  0  0  0  0  0  0  0  0
   -3.5022   -0.0444   -0.1788 C   0  0  0  0  0  0  0  0  0  0  0  0
   -3.2051    0.0680    1.3146 C   0  0  0  0  0  0  0  0  0  0  0  0
   -4.1502    1.0180    1.9641 C   0  0  0  0  0  0  0  0  0  0  0  0
   -4.1975    2.3034    1.2476 N   0  0  0  0  0  0  0  0  0  0  0  0
   -4.0715    3.5117    1.8705 C   0  0  0  0  0  0  0  0  0  0  0  0
   -3.8498    3.5834    3.2285 C   0  0  0  0  0  0  0  0  0  0  0  0
   -3.7080    3.7769    4.3624 C   0  0  0  0  0  0  0  0  0  0  0  0
   -3.4987    3.8750    5.7497 C   0  0  0  0  0  0  0  0  0  0  0  0
   -3.6967    5.2203    6.1894 N   0  0  0  0  0  0  0  0  0  0  0  0
   -4.8194    5.9346    5.7362 C   0  0  0  0  0  0  0  0  0  0  0  0
   -2.9380    5.7972    7.2049 C   0  0  0  0  0  0  0  0  0  0  0  0
   -2.1022    3.4028    6.0478 C   0  0  0  0  0  0  0  0  0  0  0  0
   -4.4635    2.9519    6.4871 C   0  0  0  0  0  0  0  0  0  0  0  0
   -4.1304    4.5653    1.2133 O   0  0  0  0  0  0  0  0  0  0  0  0
   -4.3740    2.2599   -0.1689 C   0  0  0  0  0  0  0  0  0  0  0  0
   -3.4332    1.3367   -0.8120 C   0  0  0  0  0  0  0  0  0  0  0  0
   -1.3961   -1.0851   -0.4467 O   0  0  0  0  0  0  0  0  0  0  0  0
   -4.0274   -1.2409   -2.9026 C   0  0  0  0  0  0  0  0  0  0  0  0
   -1.2998   -0.1926   -4.0680 O   0  0  0  0  0  0  0  0  0  0  0  0
    2.7211   -0.4178   -3.0981 C   0  0  0  0  0  0  0  0  0  0  0  0
    2.9013    0.5756   -1.9240 C   0  0  0  0  0  0  0  0  0  0  0  0
    1.8005    1.5376   -1.8136 C   0  0  0  0  0  0  0  0  0  0  0  0
    1.7420    2.3017   -0.6091 N   0  0  0  0  0  0  0  0  0  0  0  0
    2.5788    1.9425    0.4987 C   0  0  0  0  0  0  0  0  0  0  0  0
    3.2676    0.6269    0.4275 C   0  0  0  0  0  0  0  0  0  0  0  0
    3.0163   -0.2143   -0.7153 O   0  0  0  0  0  0  0  0  0  0  0  0
    2.1761   -2.0365   -5.6754 O   0  0  0  0  0  0  0  0  0  0  0  0
    2.5905   -0.1504   -7.7207 C   0  0  0  0  0  0  0  0  0  0  0  0
    3.7256    0.8097   -8.1158 C   0  0  0  0  0  0  0  0  0  0  0  0
    3.4097    2.2622   -7.7870 C   0  0  0  0  0  0  0  0  0  0  0  0
    3.0875    4.7939   -6.4788 O   0  0  0  0  0  0  0  0  0  0  0  0
   -0.7621    4.8159   -1.6041 C   0  0  0  0  0  0  0  0  0  0  0  0
   -0.9972    5.5057   -0.4171 C   0  0  0  0  0  0  0  0  0  0  0  0
   -0.2887    5.1172    0.7638 C   0  0  0  0  0  0  0  0  0  0  0  0
    0.6205    4.0648    0.6559 C   0  0  0  0  0  0  0  0  0  0  0  0
    0.8451    3.3783   -0.5400 C   0  0  0  0  0  0  0  0  0  0  0  0
    0.1390    3.7611   -1.6914 C   0  0  0  0  0  0  0  0  0  0  0  0
   -4.7776   -0.5625   -0.2621 F   0  0  0  0  0  0  0  0  0  0  0  0
  1  2  1  0  0  0  0
  2  3  1  0  0  0  0
  2  5  1  0  0  0  0
  3  4  1  0  0  0  0
  5  6  4  0  0  0  0
  5 10  4  0  0  0  0
  6  7  4  0  0  0  0
  7  8  4  0  0  0  0
  8  9  4  0  0  0  0
  9 10  4  0  0  0  0
 10 11  1  0  0  0  0
 11 12  4  0  0  0  0
 11 15  4  0  0  0  0
 12 13  1  0  0  0  0
 12 68  4  0  0  0  0
 13 14  1  0  0  0  0
 15 16  1  0  0  0  0
 15 67  4  0  0  0  0
 16 17  1  0  0  0  0
 17 18  1  0  0  0  0
 17 19  1  0  0  0  0
 17 20  1  0  0  0  0
 20 21  1  0  0  0  0
 21 22  1  0  0  0  0
 22 23  1  0  0  0  0
 22 66  2  0  0  0  0
 23 24  1  0  0  0  0
 23 65  1  0  0  0  0
 24 25  1  0  0  0  0
 25 26  1  0  0  0  0
 25 63  1  0  0  0  0
 26 27  1  0  0  0  0
 26 62  2  0  0  0  0
 27 28  1  0  0  0  0
 27 55  1  0  0  0  0
 28 29  1  0  0  0  0
 29 30  1  0  0  0  0
 29 54  2  0  0  0  0
 30 31  1  0  0  0  0
 30 34  1  0  0  0  0
 31 32  1  0  0  0  0
 31 33  1  0  0  0  0
 34 35  1  0  0  0  0
 34 53  1  0  0  0  0
 35 36  1  0  0  0  0
 35 52  2  0  0  0  0
 36 37  1  0  0  0  0
 36 51  1  0  0  0  0
 36 73  1  0  0  0  0
 37 38  1  0  0  0  0
 38 39  1  0  0  0  0
 39 40  1  0  0  0  0
 39 50  1  0  0  0  0
 40 41  1  0  0  0  0
 40 49  2  0  0  0  0
 41 42  1  0  0  0  0
 42 43  1  0  0  0  0
 43 44  1  0  0  0  0
 43 47  1  0  0  0  0
 43 48  1  0  0  0  0
 44 45  1  0  0  0  0
 44 46  1  0  0  0  0
 50 51  1  0  0  0  0
 55 56  1  0  0  0  0
 56 57  1  0  0  0  0
 56 61  1  0  0  0  0
 57 58  1  0  0  0  0
 58 59  1  0  0  0  0
 58 71  1  0  0  0  0
 59 60  1  0  0  0  0
 60 61  1  0  0  0  0
 63 64  1  0  0  0  0
 64 65  1  0  0  0  0
 67 68  4  0  0  0  0
 67 72  4  0  0  0  0
 68 69  4  0  0  0  0
 69 70  4  0  0  0  0
 70 71  4  0  0  0  0
 71 72  4  0  0  0  0
M  END
$$$$
