mol_ETKDG3_183
  PyMOL3.1          3D                             0

 73 79  0  0  0  0  0  0  0  0999 V2000
    5.9850   -0.0966    1.4584 C   0  0  0  0  0  0  0  0  0  0  0  0
    4.7443   -0.1475    0.6538 C   0  0  0  0  0  0  0  0  0  0  0  0
    4.7123    0.6744   -0.4732 O   0  0  0  0  0  0  0  0  0  0  0  0
    4.6494    2.0672   -0.2453 C   0  0  0  0  0  0  0  0  0  0  0  0
    4.4043   -1.5122    0.2263 C   0  0  0  0  0  0  0  0  0  0  0  0
    5.1959   -2.1138   -0.6512 N   0  0  0  0  0  0  0  0  0  0  0  0
    4.9844   -3.3964   -1.0262 C   0  0  0  0  0  0  0  0  0  0  0  0
    3.9282   -4.1443   -0.5027 C   0  0  0  0  0  0  0  0  0  0  0  0
    3.0831   -3.5273    0.4256 C   0  0  0  0  0  0  0  0  0  0  0  0
    3.3181   -2.1797    0.7613 C   0  0  0  0  0  0  0  0  0  0  0  0
    2.3911   -1.5316    1.6628 C   0  0  0  0  0  0  0  0  0  0  0  0
    2.4807   -1.5846    3.0123 N   0  0  0  0  0  0  0  0  0  0  0  0
    3.5589   -2.2505    3.8209 C   0  0  0  0  0  0  0  0  0  0  0  0
    3.1116   -3.4904    4.4630 C   0  0  0  0  0  0  0  0  0  0  0  0
    1.3080   -0.7036    1.2829 C   0  0  0  0  0  0  0  0  0  0  0  0
    0.9348   -0.1579   -0.0550 C   0  0  0  0  0  0  0  0  0  0  0  0
   -0.0069   -0.9926   -0.9823 C   0  0  0  0  0  0  0  0  0  0  0  0
    0.5768   -2.3036   -1.4399 C   0  0  0  0  0  0  0  0  0  0  0  0
   -0.2006   -0.2056   -2.2460 C   0  0  0  0  0  0  0  0  0  0  0  0
   -1.3040   -1.2507   -0.3078 C   0  0  0  0  0  0  0  0  0  0  0  0
   -2.3585   -0.1800   -0.5126 O   0  0  0  0  0  0  0  0  0  0  0  0
   -3.7338   -0.4629   -0.7377 C   0  0  0  0  0  0  0  0  0  0  0  0
   -4.7206    0.6690   -0.8407 C   0  0  0  0  0  0  0  0  0  0  0  0
   -4.0599    1.9474   -0.8703 N   0  0  0  0  0  0  0  0  0  0  0  0
   -4.8889    3.0641   -0.9792 N   0  0  0  0  0  0  0  0  0  0  0  0
   -4.8352    4.0789   -0.0661 C   0  0  0  0  0  0  0  0  0  0  0  0
   -3.8504    3.9991    1.0699 C   0  0  0  0  0  0  0  0  0  0  0  0
   -3.4005    5.3231    1.4459 N   0  0  0  0  0  0  0  0  0  0  0  0
   -2.1792    5.8093    1.1910 C   0  0  0  0  0  0  0  0  0  0  0  0
   -1.8573    7.1442    1.7855 C   0  0  0  0  0  0  0  0  0  0  0  0
   -1.8236    8.3226    0.7787 C   0  0  0  0  0  0  0  0  0  0  0  0
   -2.0047    9.6489    1.4316 C   0  0  0  0  0  0  0  0  0  0  0  0
   -2.6522    8.1223   -0.4327 C   0  0  0  0  0  0  0  0  0  0  0  0
   -0.5966    6.9919    2.5103 N   0  0  0  0  0  0  0  0  0  0  0  0
   -0.6447    6.5177    3.8001 C   0  0  0  0  0  0  0  0  0  0  0  0
    0.5613    6.1957    4.6487 C   0  0  0  0  0  0  0  0  0  0  0  0
    1.0947    4.8752    4.1572 C   0  0  0  0  0  0  0  0  0  0  0  0
    2.2890    4.4542    4.9444 C   0  0  0  0  0  0  0  0  0  0  0  0
    1.9098    4.3361    6.3510 N   0  0  0  0  0  0  0  0  0  0  0  0
    2.1054    3.1302    6.9903 C   0  0  0  0  0  0  0  0  0  0  0  0
    1.4051    2.6729    8.1110 C   0  0  0  0  0  0  0  0  0  0  0  0
    0.9682    2.1044    9.0322 C   0  0  0  0  0  0  0  0  0  0  0  0
    0.3409    1.4990   10.1406 C   0  0  0  0  0  0  0  0  0  0  0  0
    1.2805    0.7250   10.8747 N   0  0  0  0  0  0  0  0  0  0  0  0
    2.3180    1.3722   11.5827 C   0  0  0  0  0  0  0  0  0  0  0  0
    1.4097   -0.6690   10.7043 C   0  0  0  0  0  0  0  0  0  0  0  0
   -0.2667    2.5699   11.0364 C   0  0  0  0  0  0  0  0  0  0  0  0
   -0.8040    0.6316    9.6658 C   0  0  0  0  0  0  0  0  0  0  0  0
    2.9173    2.3495    6.5144 O   0  0  0  0  0  0  0  0  0  0  0  0
    1.3397    5.5228    6.9412 C   0  0  0  0  0  0  0  0  0  0  0  0
    0.2019    6.0556    6.1434 C   0  0  0  0  0  0  0  0  0  0  0  0
   -1.7706    6.3037    4.2893 O   0  0  0  0  0  0  0  0  0  0  0  0
    0.6672    7.2410    1.8005 C   0  0  0  0  0  0  0  0  0  0  0  0
   -1.3489    5.1186    0.6259 O   0  0  0  0  0  0  0  0  0  0  0  0
   -4.5431    3.3229    2.3247 C   0  0  0  0  0  0  0  0  0  0  0  0
   -3.5912    3.0975    3.5319 C   0  0  0  0  0  0  0  0  0  0  0  0
   -2.7974    1.8702    3.2410 C   0  0  0  0  0  0  0  0  0  0  0  0
   -1.9246    1.5271    4.3405 N   0  0  0  0  0  0  0  0  0  0  0  0
   -2.6364    1.3843    5.6276 C   0  0  0  0  0  0  0  0  0  0  0  0
   -3.5411    2.6035    5.8740 C   0  0  0  0  0  0  0  0  0  0  0  0
   -4.4018    2.8713    4.7090 O   0  0  0  0  0  0  0  0  0  0  0  0
   -5.6094    5.0451   -0.1320 O   0  0  0  0  0  0  0  0  0  0  0  0
   -5.7528    3.0938   -2.1577 C   0  0  0  0  0  0  0  0  0  0  0  0
   -6.5339    1.7657   -2.2428 C   0  0  0  0  0  0  0  0  0  0  0  0
   -5.6146    0.5480   -2.1037 C   0  0  0  0  0  0  0  0  0  0  0  0
   -4.2192   -1.6133   -0.8548 O   0  0  0  0  0  0  0  0  0  0  0  0
    0.7016   -0.3439    2.5057 C   0  0  0  0  0  0  0  0  0  0  0  0
    1.4629   -0.8804    3.5330 C   0  0  0  0  0  0  0  0  0  0  0  0
    1.0970   -0.5970    4.8995 C   0  0  0  0  0  0  0  0  0  0  0  0
   -0.0287    0.2001    5.1180 C   0  0  0  0  0  0  0  0  0  0  0  0
   -0.7957    0.7206    4.0728 C   0  0  0  0  0  0  0  0  0  0  0  0
   -0.4165    0.4596    2.7384 C   0  0  0  0  0  0  0  0  0  0  0  0
    1.5144    7.1977    4.5769 F   0  0  0  0  0  0  0  0  0  0  0  0
  1  2  1  0  0  0  0
  2  3  1  0  0  0  0
  2  5  1  0  0  0  0
  3  4  1  0  0  0  0
  5  6  4  0  0  0  0
  5 10  4  0  0  0  0
  6  7  4  0  0  0  0
  7  8  4  0  0  0  0
  8  9  4  0  0  0  0
  9 10  4  0  0  0  0
 10 11  1  0  0  0  0
 11 12  4  0  0  0  0
 11 15  4  0  0  0  0
 12 13  1  0  0  0  0
 12 68  4  0  0  0  0
 13 14  1  0  0  0  0
 15 16  1  0  0  0  0
 15 67  4  0  0  0  0
 16 17  1  0  0  0  0
 17 18  1  0  0  0  0
 17 19  1  0  0  0  0
 17 20  1  0  0  0  0
 20 21  1  0  0  0  0
 21 22  1  0  0  0  0
 22 23  1  0  0  0  0
 22 66  2  0  0  0  0
 23 24  1  0  0  0  0
 23 65  1  0  0  0  0
 24 25  1  0  0  0  0
 25 26  1  0  0  0  0
 25 63  1  0  0  0  0
 26 27  1  0  0  0  0
 26 62  2  0  0  0  0
 27 28  1  0  0  0  0
 27 55  1  0  0  0  0
 28 29  1  0  0  0  0
 29 30  1  0  0  0  0
 29 54  2  0  0  0  0
 30 31  1  0  0  0  0
 30 34  1  0  0  0  0
 31 32  1  0  0  0  0
 31 33  1  0  0  0  0
 34 35  1  0  0  0  0
 34 53  1  0  0  0  0
 35 36  1  0  0  0  0
 35 52  2  0  0  0  0
 36 37  1  0  0  0  0
 36 51  1  0  0  0  0
 36 73  1  0  0  0  0
 37 38  1  0  0  0  0
 38 39  1  0  0  0  0
 39 40  1  0  0  0  0
 39 50  1  0  0  0  0
 40 41  1  0  0  0  0
 40 49  2  0  0  0  0
 41 42  1  0  0  0  0
 42 43  1  0  0  0  0
 43 44  1  0  0  0  0
 43 47  1  0  0  0  0
 43 48  1  0  0  0  0
 44 45  1  0  0  0  0
 44 46  1  0  0  0  0
 50 51  1  0  0  0  0
 55 56  1  0  0  0  0
 56 57  1  0  0  0  0
 56 61  1  0  0  0  0
 57 58  1  0  0  0  0
 58 59  1  0  0  0  0
 58 71  1  0  0  0  0
 59 60  1  0  0  0  0
 60 61  1  0  0  0  0
 63 64  1  0  0  0  0
 64 65  1  0  0  0  0
 67 68  4  0  0  0  0
 67 72  4  0  0  0  0
 68 69  4  0  0  0  0
 69 70  4  0  0  0  0
 70 71  4  0  0  0  0
 71 72  4  0  0  0  0
M  END
$$$$
