mol_ETKDG3_186
  PyMOL3.1          3D                             0

 73 79  0  0  0  0  0  0  0  0999 V2000
   -5.6404    1.3546    2.0194 C   0  0  0  0  0  0  0  0  0  0  0  0
   -4.9883    0.0682    1.7355 C   0  0  0  0  0  0  0  0  0  0  0  0
   -4.3580   -0.5614    2.8236 O   0  0  0  0  0  0  0  0  0  0  0  0
   -3.1854    0.0392    3.3239 C   0  0  0  0  0  0  0  0  0  0  0  0
   -5.9110   -0.9132    1.1504 C   0  0  0  0  0  0  0  0  0  0  0  0
   -6.7793   -1.5114    1.9466 N   0  0  0  0  0  0  0  0  0  0  0  0
   -7.6973   -2.3708    1.4609 C   0  0  0  0  0  0  0  0  0  0  0  0
   -7.7771   -2.6633    0.0976 C   0  0  0  0  0  0  0  0  0  0  0  0
   -6.8746   -2.0358   -0.7599 C   0  0  0  0  0  0  0  0  0  0  0  0
   -5.9144   -1.1719   -0.2088 C   0  0  0  0  0  0  0  0  0  0  0  0
   -4.9477   -0.5727   -1.0950 C   0  0  0  0  0  0  0  0  0  0  0  0
   -5.2268    0.4703   -1.9033 N   0  0  0  0  0  0  0  0  0  0  0  0
   -6.5102    1.2387   -1.9827 C   0  0  0  0  0  0  0  0  0  0  0  0
   -7.2505    1.0714   -3.2083 C   0  0  0  0  0  0  0  0  0  0  0  0
   -3.5776   -0.9320   -1.1935 C   0  0  0  0  0  0  0  0  0  0  0  0
   -2.7504   -1.9345   -0.4339 C   0  0  0  0  0  0  0  0  0  0  0  0
   -2.7634   -3.4208   -1.0011 C   0  0  0  0  0  0  0  0  0  0  0  0
   -1.8735   -4.2520   -0.0957 C   0  0  0  0  0  0  0  0  0  0  0  0
   -4.1037   -4.0466   -0.8981 C   0  0  0  0  0  0  0  0  0  0  0  0
   -2.2740   -3.5203   -2.4345 C   0  0  0  0  0  0  0  0  0  0  0  0
   -0.7954   -3.6320   -2.6491 O   0  0  0  0  0  0  0  0  0  0  0  0
   -0.1895   -4.4180   -3.6779 C   0  0  0  0  0  0  0  0  0  0  0  0
    1.3230   -4.4050   -3.8062 C   0  0  0  0  0  0  0  0  0  0  0  0
    1.8956   -3.7739   -2.6624 N   0  0  0  0  0  0  0  0  0  0  0  0
    3.2785   -3.7128   -2.5778 N   0  0  0  0  0  0  0  0  0  0  0  0
    3.9190   -2.5281   -2.3806 C   0  0  0  0  0  0  0  0  0  0  0  0
    3.0964   -1.2822   -2.3386 C   0  0  0  0  0  0  0  0  0  0  0  0
    3.6087   -0.3389   -1.3728 N   0  0  0  0  0  0  0  0  0  0  0  0
    3.0514   -0.1535   -0.1728 C   0  0  0  0  0  0  0  0  0  0  0  0
    3.6037    0.9657    0.6416 C   0  0  0  0  0  0  0  0  0  0  0  0
    4.5113    0.5344    1.8296 C   0  0  0  0  0  0  0  0  0  0  0  0
    5.1087   -0.7970    1.7363 C   0  0  0  0  0  0  0  0  0  0  0  0
    5.4649    1.6175    2.2358 C   0  0  0  0  0  0  0  0  0  0  0  0
    2.4489    1.7329    1.1054 N   0  0  0  0  0  0  0  0  0  0  0  0
    1.8689    2.6266    0.2317 C   0  0  0  0  0  0  0  0  0  0  0  0
    0.6259    3.4212    0.5206 C   0  0  0  0  0  0  0  0  0  0  0  0
    0.3162    4.4489   -0.5736 C   0  0  0  0  0  0  0  0  0  0  0  0
   -0.9981    5.1085   -0.3574 C   0  0  0  0  0  0  0  0  0  0  0  0
   -2.0586    4.1196   -0.0855 N   0  0  0  0  0  0  0  0  0  0  0  0
   -3.2729    4.1106   -0.6914 C   0  0  0  0  0  0  0  0  0  0  0  0
   -3.5469    4.8575   -1.8150 C   0  0  0  0  0  0  0  0  0  0  0  0
   -3.9440    5.4398   -2.7341 C   0  0  0  0  0  0  0  0  0  0  0  0
   -4.3005    6.1761   -3.8648 C   0  0  0  0  0  0  0  0  0  0  0  0
   -5.7084    6.3622   -3.9148 N   0  0  0  0  0  0  0  0  0  0  0  0
   -6.4296    6.2995   -5.1075 C   0  0  0  0  0  0  0  0  0  0  0  0
   -6.4139    6.7406   -2.7551 C   0  0  0  0  0  0  0  0  0  0  0  0
   -3.6008    7.5278   -3.8262 C   0  0  0  0  0  0  0  0  0  0  0  0
   -3.8104    5.4567   -5.0965 C   0  0  0  0  0  0  0  0  0  0  0  0
   -4.1632    3.3678   -0.2442 O   0  0  0  0  0  0  0  0  0  0  0  0
   -1.7816    3.1128    0.8773 C   0  0  0  0  0  0  0  0  0  0  0  0
   -0.5171    2.4263    0.5711 C   0  0  0  0  0  0  0  0  0  0  0  0
    2.4008    2.7621   -0.8840 O   0  0  0  0  0  0  0  0  0  0  0  0
    1.8896    1.4429    2.4356 C   0  0  0  0  0  0  0  0  0  0  0  0
    2.0672   -0.7906    0.1581 O   0  0  0  0  0  0  0  0  0  0  0  0
    3.0494   -0.6252   -3.7685 C   0  0  0  0  0  0  0  0  0  0  0  0
    2.1332    0.6176   -3.8792 C   0  0  0  0  0  0  0  0  0  0  0  0
    0.7256    0.1349   -3.8635 C   0  0  0  0  0  0  0  0  0  0  0  0
   -0.2100    1.2105   -4.0705 N   0  0  0  0  0  0  0  0  0  0  0  0
    0.0604    2.0351   -5.2610 C   0  0  0  0  0  0  0  0  0  0  0  0
    1.5416    2.4258   -5.3245 C   0  0  0  0  0  0  0  0  0  0  0  0
    2.4109    1.2546   -5.1505 O   0  0  0  0  0  0  0  0  0  0  0  0
    5.1457   -2.4555   -2.2815 O   0  0  0  0  0  0  0  0  0  0  0  0
    3.9780   -4.9936   -2.6406 C   0  0  0  0  0  0  0  0  0  0  0  0
    3.4719   -5.7815   -3.8644 C   0  0  0  0  0  0  0  0  0  0  0  0
    1.9391   -5.8306   -3.9333 C   0  0  0  0  0  0  0  0  0  0  0  0
   -0.8167   -5.1295   -4.4849 O   0  0  0  0  0  0  0  0  0  0  0  0
   -3.0782   -0.0536   -2.1627 C   0  0  0  0  0  0  0  0  0  0  0  0
   -4.1093    0.7778   -2.5725 C   0  0  0  0  0  0  0  0  0  0  0  0
   -3.8457    1.7719   -3.5577 C   0  0  0  0  0  0  0  0  0  0  0  0
   -2.5364    1.8884   -4.0204 C   0  0  0  0  0  0  0  0  0  0  0  0
   -1.5107    1.0551   -3.5838 C   0  0  0  0  0  0  0  0  0  0  0  0
   -1.7782    0.0664   -2.6287 C   0  0  0  0  0  0  0  0  0  0  0  0
    0.7492    4.0992    1.7197 F   0  0  0  0  0  0  0  0  0  0  0  0
  1  2  1  0  0  0  0
  2  3  1  0  0  0  0
  2  5  1  0  0  0  0
  3  4  1  0  0  0  0
  5  6  4  0  0  0  0
  5 10  4  0  0  0  0
  6  7  4  0  0  0  0
  7  8  4  0  0  0  0
  8  9  4  0  0  0  0
  9 10  4  0  0  0  0
 10 11  1  0  0  0  0
 11 12  4  0  0  0  0
 11 15  4  0  0  0  0
 12 13  1  0  0  0  0
 12 68  4  0  0  0  0
 13 14  1  0  0  0  0
 15 16  1  0  0  0  0
 15 67  4  0  0  0  0
 16 17  1  0  0  0  0
 17 18  1  0  0  0  0
 17 19  1  0  0  0  0
 17 20  1  0  0  0  0
 20 21  1  0  0  0  0
 21 22  1  0  0  0  0
 22 23  1  0  0  0  0
 22 66  2  0  0  0  0
 23 24  1  0  0  0  0
 23 65  1  0  0  0  0
 24 25  1  0  0  0  0
 25 26  1  0  0  0  0
 25 63  1  0  0  0  0
 26 27  1  0  0  0  0
 26 62  2  0  0  0  0
 27 28  1  0  0  0  0
 27 55  1  0  0  0  0
 28 29  1  0  0  0  0
 29 30  1  0  0  0  0
 29 54  2  0  0  0  0
 30 31  1  0  0  0  0
 30 34  1  0  0  0  0
 31 32  1  0  0  0  0
 31 33  1  0  0  0  0
 34 35  1  0  0  0  0
 34 53  1  0  0  0  0
 35 36  1  0  0  0  0
 35 52  2  0  0  0  0
 36 37  1  0  0  0  0
 36 51  1  0  0  0  0
 36 73  1  0  0  0  0
 37 38  1  0  0  0  0
 38 39  1  0  0  0  0
 39 40  1  0  0  0  0
 39 50  1  0  0  0  0
 40 41  1  0  0  0  0
 40 49  2  0  0  0  0
 41 42  1  0  0  0  0
 42 43  1  0  0  0  0
 43 44  1  0  0  0  0
 43 47  1  0  0  0  0
 43 48  1  0  0  0  0
 44 45  1  0  0  0  0
 44 46  1  0  0  0  0
 50 51  1  0  0  0  0
 55 56  1  0  0  0  0
 56 57  1  0  0  0  0
 56 61  1  0  0  0  0
 57 58  1  0  0  0  0
 58 59  1  0  0  0  0
 58 71  1  0  0  0  0
 59 60  1  0  0  0  0
 60 61  1  0  0  0  0
 63 64  1  0  0  0  0
 64 65  1  0  0  0  0
 67 68  4  0  0  0  0
 67 72  4  0  0  0  0
 68 69  4  0  0  0  0
 69 70  4  0  0  0  0
 70 71  4  0  0  0  0
 71 72  4  0  0  0  0
M  END
$$$$
