mol_ETKDG1_60
  PyMOL3.1          3D                             0

 73 79  0  0  0  0  0  0  0  0999 V2000
    1.0314    1.9767   -5.7906 C   0  0  0  0  0  0  0  0  0  0  0  0
    1.6273    2.8164   -4.7266 C   0  0  0  0  0  0  0  0  0  0  0  0
    3.0397    2.8270   -4.6849 O   0  0  0  0  0  0  0  0  0  0  0  0
    3.6860    1.6538   -4.2587 C   0  0  0  0  0  0  0  0  0  0  0  0
    1.1730    4.2194   -4.7771 C   0  0  0  0  0  0  0  0  0  0  0  0
    1.7375    5.0154   -5.6658 N   0  0  0  0  0  0  0  0  0  0  0  0
    1.3481    6.3017   -5.8064 C   0  0  0  0  0  0  0  0  0  0  0  0
    0.3205    6.8470   -5.0221 C   0  0  0  0  0  0  0  0  0  0  0  0
   -0.3029    6.0156   -4.0840 C   0  0  0  0  0  0  0  0  0  0  0  0
    0.1525    4.6983   -3.9508 C   0  0  0  0  0  0  0  0  0  0  0  0
   -0.4672    3.8591   -2.9599 C   0  0  0  0  0  0  0  0  0  0  0  0
   -1.5958    3.1522   -3.2045 N   0  0  0  0  0  0  0  0  0  0  0  0
   -2.3935    3.0924   -4.4840 C   0  0  0  0  0  0  0  0  0  0  0  0
   -3.6346    3.8885   -4.4206 C   0  0  0  0  0  0  0  0  0  0  0  0
    0.0289    3.5881   -1.6514 C   0  0  0  0  0  0  0  0  0  0  0  0
    1.2879    4.0322   -0.9460 C   0  0  0  0  0  0  0  0  0  0  0  0
    1.2075    5.3895   -0.1124 C   0  0  0  0  0  0  0  0  0  0  0  0
    0.9895    6.6058   -0.9899 C   0  0  0  0  0  0  0  0  0  0  0  0
    2.5640    5.5996    0.5099 C   0  0  0  0  0  0  0  0  0  0  0  0
    0.1406    5.3889    0.9798 C   0  0  0  0  0  0  0  0  0  0  0  0
    0.5613    4.8240    2.3090 O   0  0  0  0  0  0  0  0  0  0  0  0
    0.1797    5.3558    3.5780 C   0  0  0  0  0  0  0  0  0  0  0  0
    0.6583    4.6582    4.8386 C   0  0  0  0  0  0  0  0  0  0  0  0
    1.6191    3.6513    4.5085 N   0  0  0  0  0  0  0  0  0  0  0  0
    2.1950    2.9295    5.5522 N   0  0  0  0  0  0  0  0  0  0  0  0
    2.1885    1.5655    5.5411 C   0  0  0  0  0  0  0  0  0  0  0  0
    1.5501    0.8601    4.3795 C   0  0  0  0  0  0  0  0  0  0  0  0
    2.3143   -0.3132    3.9909 N   0  0  0  0  0  0  0  0  0  0  0  0
    3.0708   -0.3422    2.8839 C   0  0  0  0  0  0  0  0  0  0  0  0
    3.6813   -1.6580    2.5271 C   0  0  0  0  0  0  0  0  0  0  0  0
    5.1718   -1.8410    2.9507 C   0  0  0  0  0  0  0  0  0  0  0  0
    5.6118   -3.2676    2.8746 C   0  0  0  0  0  0  0  0  0  0  0  0
    5.5076   -1.1983    4.2532 C   0  0  0  0  0  0  0  0  0  0  0  0
    3.5016   -1.8277    1.0862 N   0  0  0  0  0  0  0  0  0  0  0  0
    2.3033   -2.3216    0.6330 C   0  0  0  0  0  0  0  0  0  0  0  0
    1.9272   -2.4720   -0.8188 C   0  0  0  0  0  0  0  0  0  0  0  0
    0.7060   -3.3749   -1.0314 C   0  0  0  0  0  0  0  0  0  0  0  0
    0.2558   -3.3585   -2.4622 C   0  0  0  0  0  0  0  0  0  0  0  0
    0.1028   -1.9687   -2.9400 N   0  0  0  0  0  0  0  0  0  0  0  0
   -1.0302   -1.4673   -3.5236 C   0  0  0  0  0  0  0  0  0  0  0  0
   -2.2449   -2.1128   -3.4609 C   0  0  0  0  0  0  0  0  0  0  0  0
   -3.3064   -2.5605   -3.5419 C   0  0  0  0  0  0  0  0  0  0  0  0
   -4.5319   -3.2446   -3.5461 C   0  0  0  0  0  0  0  0  0  0  0  0
   -5.2714   -2.8859   -4.7103 N   0  0  0  0  0  0  0  0  0  0  0  0
   -6.3995   -2.0566   -4.6484 C   0  0  0  0  0  0  0  0  0  0  0  0
   -4.7432   -3.1633   -5.9936 C   0  0  0  0  0  0  0  0  0  0  0  0
   -4.2889   -4.7513   -3.5261 C   0  0  0  0  0  0  0  0  0  0  0  0
   -5.3029   -2.9247   -2.2873 C   0  0  0  0  0  0  0  0  0  0  0  0
   -0.9886   -0.3674   -4.1062 O   0  0  0  0  0  0  0  0  0  0  0  0
    1.2159   -1.0975   -2.7481 C   0  0  0  0  0  0  0  0  0  0  0  0
    1.5904   -1.0704   -1.3109 C   0  0  0  0  0  0  0  0  0  0  0  0
    1.4534   -2.6445    1.4907 O   0  0  0  0  0  0  0  0  0  0  0  0
    4.5630   -1.3442    0.1779 C   0  0  0  0  0  0  0  0  0  0  0  0
    3.1389    0.6372    2.1560 O   0  0  0  0  0  0  0  0  0  0  0  0
    0.0795    0.4309    4.7485 C   0  0  0  0  0  0  0  0  0  0  0  0
   -0.7066   -0.1925    3.5643 C   0  0  0  0  0  0  0  0  0  0  0  0
   -1.1282    0.9142    2.6626 C   0  0  0  0  0  0  0  0  0  0  0  0
   -1.9464    0.4413    1.5785 N   0  0  0  0  0  0  0  0  0  0  0  0
   -3.0937   -0.3855    1.9811 C   0  0  0  0  0  0  0  0  0  0  0  0
   -2.6715   -1.4430    3.0123 C   0  0  0  0  0  0  0  0  0  0  0  0
   -1.8825   -0.8514    4.1007 O   0  0  0  0  0  0  0  0  0  0  0  0
    2.6646    0.8985    6.4746 O   0  0  0  0  0  0  0  0  0  0  0  0
    2.8534    3.7193    6.5948 C   0  0  0  0  0  0  0  0  0  0  0  0
    1.9211    4.8625    7.0495 C   0  0  0  0  0  0  0  0  0  0  0  0
    1.3013    5.6301    5.8750 C   0  0  0  0  0  0  0  0  0  0  0  0
   -0.5258    6.3685    3.7220 O   0  0  0  0  0  0  0  0  0  0  0  0
   -0.9063    2.6835   -1.1307 C   0  0  0  0  0  0  0  0  0  0  0  0
   -1.8753    2.4451   -2.1074 C   0  0  0  0  0  0  0  0  0  0  0  0
   -2.9282    1.5090   -1.8401 C   0  0  0  0  0  0  0  0  0  0  0  0
   -2.9098    0.8668   -0.6045 C   0  0  0  0  0  0  0  0  0  0  0  0
   -1.9285    1.1194    0.3580 C   0  0  0  0  0  0  0  0  0  0  0  0
   -0.9004    2.0386    0.0985 C   0  0  0  0  0  0  0  0  0  0  0  0
    2.9626   -3.0234   -1.5523 F   0  0  0  0  0  0  0  0  0  0  0  0
  1  2  1  0  0  0  0
  2  3  1  0  0  0  0
  2  5  1  0  0  0  0
  3  4  1  0  0  0  0
  5  6  4  0  0  0  0
  5 10  4  0  0  0  0
  6  7  4  0  0  0  0
  7  8  4  0  0  0  0
  8  9  4  0  0  0  0
  9 10  4  0  0  0  0
 10 11  1  0  0  0  0
 11 12  4  0  0  0  0
 11 15  4  0  0  0  0
 12 13  1  0  0  0  0
 12 68  4  0  0  0  0
 13 14  1  0  0  0  0
 15 16  1  0  0  0  0
 15 67  4  0  0  0  0
 16 17  1  0  0  0  0
 17 18  1  0  0  0  0
 17 19  1  0  0  0  0
 17 20  1  0  0  0  0
 20 21  1  0  0  0  0
 21 22  1  0  0  0  0
 22 23  1  0  0  0  0
 22 66  2  0  0  0  0
 23 24  1  0  0  0  0
 23 65  1  0  0  0  0
 24 25  1  0  0  0  0
 25 26  1  0  0  0  0
 25 63  1  0  0  0  0
 26 27  1  0  0  0  0
 26 62  2  0  0  0  0
 27 28  1  0  0  0  0
 27 55  1  0  0  0  0
 28 29  1  0  0  0  0
 29 30  1  0  0  0  0
 29 54  2  0  0  0  0
 30 31  1  0  0  0  0
 30 34  1  0  0  0  0
 31 32  1  0  0  0  0
 31 33  1  0  0  0  0
 34 35  1  0  0  0  0
 34 53  1  0  0  0  0
 35 36  1  0  0  0  0
 35 52  2  0  0  0  0
 36 37  1  0  0  0  0
 36 51  1  0  0  0  0
 36 73  1  0  0  0  0
 37 38  1  0  0  0  0
 38 39  1  0  0  0  0
 39 40  1  0  0  0  0
 39 50  1  0  0  0  0
 40 41  1  0  0  0  0
 40 49  2  0  0  0  0
 41 42  1  0  0  0  0
 42 43  1  0  0  0  0
 43 44  1  0  0  0  0
 43 47  1  0  0  0  0
 43 48  1  0  0  0  0
 44 45  1  0  0  0  0
 44 46  1  0  0  0  0
 50 51  1  0  0  0  0
 55 56  1  0  0  0  0
 56 57  1  0  0  0  0
 56 61  1  0  0  0  0
 57 58  1  0  0  0  0
 58 59  1  0  0  0  0
 58 71  1  0  0  0  0
 59 60  1  0  0  0  0
 60 61  1  0  0  0  0
 63 64  1  0  0  0  0
 64 65  1  0  0  0  0
 67 68  4  0  0  0  0
 67 72  4  0  0  0  0
 68 69  4  0  0  0  0
 69 70  4  0  0  0  0
 70 71  4  0  0  0  0
 71 72  4  0  0  0  0
M  END
$$$$
