mol_bioactive_4
  PyMOL3.1          3D                             0

 73 79  0  0  0  0  0  0  0  0999 V2000
    2.4060    1.3163   -7.0825 C   0  0  0  0  0  0  0  0  0  0  0  0
    2.4215    1.9893   -5.7586 C   0  0  0  0  0  0  0  0  0  0  0  0
    2.7517    3.3768   -5.8658 O   0  0  0  0  0  0  0  0  0  0  0  0
    1.8391    4.2097   -6.5641 C   0  0  0  0  0  0  0  0  0  0  0  0
    3.3728    1.3462   -4.7826 C   0  0  0  0  0  0  0  0  0  0  0  0
    4.6514    1.6270   -4.9248 N   0  0  0  0  0  0  0  0  0  0  0  0
    5.5897    1.0614   -4.1364 C   0  0  0  0  0  0  0  0  0  0  0  0
    5.2579    0.1532   -3.1356 C   0  0  0  0  0  0  0  0  0  0  0  0
    3.9199   -0.1677   -2.9685 C   0  0  0  0  0  0  0  0  0  0  0  0
    2.9714    0.4403   -3.7882 C   0  0  0  0  0  0  0  0  0  0  0  0
    1.5867    0.1218   -3.5678 C   0  0  0  0  0  0  0  0  0  0  0  0
    0.8637   -0.6761   -4.3888 N   0  0  0  0  0  0  0  0  0  0  0  0
    1.3312   -1.4583   -5.5795 C   0  0  0  0  0  0  0  0  0  0  0  0
    1.6443   -2.8659   -5.2457 C   0  0  0  0  0  0  0  0  0  0  0  0
    0.7817    0.5939   -2.4974 C   0  0  0  0  0  0  0  0  0  0  0  0
    1.1257    1.3135   -1.2324 C   0  0  0  0  0  0  0  0  0  0  0  0
    1.2527    2.8615   -1.2155 C   0  0  0  0  0  0  0  0  0  0  0  0
    1.8629    3.2647    0.1346 C   0  0  0  0  0  0  0  0  0  0  0  0
    2.1898    3.3860   -2.2297 C   0  0  0  0  0  0  0  0  0  0  0  0
   -0.0711    3.4796   -1.3875 C   0  0  0  0  0  0  0  0  0  0  0  0
   -1.0315    3.5129   -0.2331 O   0  0  0  0  0  0  0  0  0  0  0  0
   -1.9599    4.5918   -0.0139 C   0  0  0  0  0  0  0  0  0  0  0  0
   -2.9545    4.4998    1.1115 C   0  0  0  0  0  0  0  0  0  0  0  0
   -2.6745    3.4042    1.9817 N   0  0  0  0  0  0  0  0  0  0  0  0
   -3.4804    3.2397    3.1045 N   0  0  0  0  0  0  0  0  0  0  0  0
   -4.0882    2.0470    3.3748 C   0  0  0  0  0  0  0  0  0  0  0  0
   -3.9406    0.9128    2.3972 C   0  0  0  0  0  0  0  0  0  0  0  0
   -3.7489   -0.3620    3.0770 N   0  0  0  0  0  0  0  0  0  0  0  0
   -2.5823   -0.9869    3.2609 C   0  0  0  0  0  0  0  0  0  0  0  0
   -2.6440   -2.3428    3.8703 C   0  0  0  0  0  0  0  0  0  0  0  0
   -2.4150   -2.4406    5.3792 C   0  0  0  0  0  0  0  0  0  0  0  0
   -2.1182   -1.2218    6.1142 C   0  0  0  0  0  0  0  0  0  0  0  0
   -3.2714   -3.4584    6.0583 C   0  0  0  0  0  0  0  0  0  0  0  0
   -1.7479   -3.2145    3.1356 N   0  0  0  0  0  0  0  0  0  0  0  0
   -2.1725   -3.7136    1.9364 C   0  0  0  0  0  0  0  0  0  0  0  0
   -1.4025   -4.6481    1.0585 C   0  0  0  0  0  0  0  0  0  0  0  0
   -2.3176   -5.2727    0.0137 C   0  0  0  0  0  0  0  0  0  0  0  0
   -1.6253   -6.0888   -0.9249 C   0  0  0  0  0  0  0  0  0  0  0  0
   -0.3991   -5.5110   -1.4307 N   0  0  0  0  0  0  0  0  0  0  0  0
   -0.0889   -5.7372   -2.7245 C   0  0  0  0  0  0  0  0  0  0  0  0
    1.1489   -6.2541   -3.0195 C   0  0  0  0  0  0  0  0  0  0  0  0
    2.0767   -6.8493   -3.4047 C   0  0  0  0  0  0  0  0  0  0  0  0
    3.2687   -7.5436   -3.6832 C   0  0  0  0  0  0  0  0  0  0  0  0
    3.1222   -8.3811   -4.8417 N   0  0  0  0  0  0  0  0  0  0  0  0
    2.0472   -9.2856   -4.8988 C   0  0  0  0  0  0  0  0  0  0  0  0
    4.1592   -8.5767   -5.7679 C   0  0  0  0  0  0  0  0  0  0  0  0
    4.3828   -6.5335   -3.8683 C   0  0  0  0  0  0  0  0  0  0  0  0
    3.6539   -8.4309   -2.4947 C   0  0  0  0  0  0  0  0  0  0  0  0
   -0.9128   -5.5620   -3.6284 O   0  0  0  0  0  0  0  0  0  0  0  0
    0.4520   -4.7705   -0.5398 C   0  0  0  0  0  0  0  0  0  0  0  0
   -0.2871   -3.8830    0.3581 C   0  0  0  0  0  0  0  0  0  0  0  0
   -3.2967   -3.3605    1.5624 O   0  0  0  0  0  0  0  0  0  0  0  0
   -0.3868   -3.4385    3.6412 C   0  0  0  0  0  0  0  0  0  0  0  0
   -1.5507   -0.5053    2.8296 O   0  0  0  0  0  0  0  0  0  0  0  0
   -5.2390    0.8556    1.5252 C   0  0  0  0  0  0  0  0  0  0  0  0
   -5.2950    0.4081    0.0655 C   0  0  0  0  0  0  0  0  0  0  0  0
   -3.9894    0.2176   -0.5370 C   0  0  0  0  0  0  0  0  0  0  0  0
   -3.9816   -0.4304   -1.8083 N   0  0  0  0  0  0  0  0  0  0  0  0
   -5.1969   -0.9732   -2.3367 C   0  0  0  0  0  0  0  0  0  0  0  0
   -6.3101   -1.1844   -1.3841 C   0  0  0  0  0  0  0  0  0  0  0  0
   -6.1018   -0.7750   -0.0172 O   0  0  0  0  0  0  0  0  0  0  0  0
   -4.8183    1.9004    4.3624 O   0  0  0  0  0  0  0  0  0  0  0  0
   -3.5947    4.3918    3.9873 C   0  0  0  0  0  0  0  0  0  0  0  0
   -3.9434    5.6427    3.1573 C   0  0  0  0  0  0  0  0  0  0  0  0
   -3.0498    5.8039    1.9402 C   0  0  0  0  0  0  0  0  0  0  0  0
   -2.0106    5.6449   -0.6877 O   0  0  0  0  0  0  0  0  0  0  0  0
   -0.4817    0.0553   -2.7735 C   0  0  0  0  0  0  0  0  0  0  0  0
   -0.3856   -0.7324   -3.9150 C   0  0  0  0  0  0  0  0  0  0  0  0
   -1.5236   -1.4553   -4.3729 C   0  0  0  0  0  0  0  0  0  0  0  0
   -2.6906   -1.3199   -3.6436 C   0  0  0  0  0  0  0  0  0  0  0  0
   -2.7885   -0.5199   -2.5098 C   0  0  0  0  0  0  0  0  0  0  0  0
   -1.6663    0.2048   -2.0696 C   0  0  0  0  0  0  0  0  0  0  0  0
   -0.8431   -5.6786    1.7891 F   0  0  0  0  0  0  0  0  0  0  0  0
  1  2  1  0  0  0  0
  2  3  1  0  0  0  0
  2  5  1  0  0  0  0
  3  4  1  0  0  0  0
  5  6  4  0  0  0  0
  5 10  4  0  0  0  0
  6  7  4  0  0  0  0
  7  8  4  0  0  0  0
  8  9  4  0  0  0  0
  9 10  4  0  0  0  0
 10 11  1  0  0  0  0
 11 12  4  0  0  0  0
 11 15  4  0  0  0  0
 12 13  1  0  0  0  0
 12 68  4  0  0  0  0
 13 14  1  0  0  0  0
 15 16  1  0  0  0  0
 15 67  4  0  0  0  0
 16 17  1  0  0  0  0
 17 18  1  0  0  0  0
 17 19  1  0  0  0  0
 17 20  1  0  0  0  0
 20 21  1  0  0  0  0
 21 22  1  0  0  0  0
 22 23  1  0  0  0  0
 22 66  2  0  0  0  0
 23 24  1  0  0  0  0
 23 65  1  0  0  0  0
 24 25  1  0  0  0  0
 25 26  1  0  0  0  0
 25 63  1  0  0  0  0
 26 27  1  0  0  0  0
 26 62  2  0  0  0  0
 27 28  1  0  0  0  0
 27 55  1  0  0  0  0
 28 29  1  0  0  0  0
 29 30  1  0  0  0  0
 29 54  2  0  0  0  0
 30 31  1  0  0  0  0
 30 34  1  0  0  0  0
 31 32  1  0  0  0  0
 31 33  1  0  0  0  0
 34 35  1  0  0  0  0
 34 53  1  0  0  0  0
 35 36  1  0  0  0  0
 35 52  2  0  0  0  0
 36 37  1  0  0  0  0
 36 51  1  0  0  0  0
 36 73  1  0  0  0  0
 37 38  1  0  0  0  0
 38 39  1  0  0  0  0
 39 40  1  0  0  0  0
 39 50  1  0  0  0  0
 40 41  1  0  0  0  0
 40 49  2  0  0  0  0
 41 42  1  0  0  0  0
 42 43  1  0  0  0  0
 43 44  1  0  0  0  0
 43 47  1  0  0  0  0
 43 48  1  0  0  0  0
 44 45  1  0  0  0  0
 44 46  1  0  0  0  0
 50 51  1  0  0  0  0
 55 56  1  0  0  0  0
 56 57  1  0  0  0  0
 56 61  1  0  0  0  0
 57 58  1  0  0  0  0
 58 59  1  0  0  0  0
 58 71  1  0  0  0  0
 59 60  1  0  0  0  0
 60 61  1  0  0  0  0
 63 64  1  0  0  0  0
 64 65  1  0  0  0  0
 67 68  4  0  0  0  0
 67 72  4  0  0  0  0
 68 69  4  0  0  0  0
 69 70  4  0  0  0  0
 70 71  4  0  0  0  0
 71 72  4  0  0  0  0
M  END
$$$$
