mol_ETKDG5_275
  PyMOL3.1          3D                             0

 73 79  0  0  0  0  0  0  0  0999 V2000
    1.2505    1.5159    4.4941 C   0  0  0  0  0  0  0  0  0  0  0  0
    0.1569    0.5465    4.2629 C   0  0  0  0  0  0  0  0  0  0  0  0
   -1.1049    0.9067    4.8051 O   0  0  0  0  0  0  0  0  0  0  0  0
   -1.8356    1.9044    4.1283 C   0  0  0  0  0  0  0  0  0  0  0  0
    0.4615   -0.8109    4.7641 C   0  0  0  0  0  0  0  0  0  0  0  0
    0.3527   -1.0323    6.0655 N   0  0  0  0  0  0  0  0  0  0  0  0
    0.6482   -2.2370    6.6024 C   0  0  0  0  0  0  0  0  0  0  0  0
    1.0894   -3.3008    5.8138 C   0  0  0  0  0  0  0  0  0  0  0  0
    1.2233   -3.0882    4.4405 C   0  0  0  0  0  0  0  0  0  0  0  0
    0.8803   -1.8301    3.9175 C   0  0  0  0  0  0  0  0  0  0  0  0
    0.9977   -1.6506    2.4964 C   0  0  0  0  0  0  0  0  0  0  0  0
    2.1839   -1.4056    1.8811 N   0  0  0  0  0  0  0  0  0  0  0  0
    3.5389   -1.2052    2.5104 C   0  0  0  0  0  0  0  0  0  0  0  0
    4.4150   -2.3766    2.3983 C   0  0  0  0  0  0  0  0  0  0  0  0
   -0.0786   -1.6432    1.5654 C   0  0  0  0  0  0  0  0  0  0  0  0
   -1.5745   -1.6990    1.7339 C   0  0  0  0  0  0  0  0  0  0  0  0
   -2.2683   -3.1013    1.9821 C   0  0  0  0  0  0  0  0  0  0  0  0
   -3.7698   -2.8679    1.9405 C   0  0  0  0  0  0  0  0  0  0  0  0
   -1.9977   -3.6041    3.3654 C   0  0  0  0  0  0  0  0  0  0  0  0
   -1.8949   -4.1806    0.9681 C   0  0  0  0  0  0  0  0  0  0  0  0
   -2.6939   -4.2158   -0.2982 O   0  0  0  0  0  0  0  0  0  0  0  0
   -3.2131   -5.3896   -0.9132 C   0  0  0  0  0  0  0  0  0  0  0  0
   -3.9580   -5.2379   -2.2376 C   0  0  0  0  0  0  0  0  0  0  0  0
   -4.5965   -3.9529   -2.2973 N   0  0  0  0  0  0  0  0  0  0  0  0
   -5.4168   -3.6504   -3.3864 N   0  0  0  0  0  0  0  0  0  0  0  0
   -5.2518   -2.4900   -4.1078 C   0  0  0  0  0  0  0  0  0  0  0  0
   -4.1026   -1.5804   -3.7728 C   0  0  0  0  0  0  0  0  0  0  0  0
   -4.4662   -0.1683   -3.8014 N   0  0  0  0  0  0  0  0  0  0  0  0
   -4.6015    0.5954   -2.6793 C   0  0  0  0  0  0  0  0  0  0  0  0
   -4.8073    2.0535   -2.9216 C   0  0  0  0  0  0  0  0  0  0  0  0
   -6.2631    2.5285   -2.6034 C   0  0  0  0  0  0  0  0  0  0  0  0
   -6.5009    3.9545   -2.9821 C   0  0  0  0  0  0  0  0  0  0  0  0
   -7.2973    1.6042   -3.1772 C   0  0  0  0  0  0  0  0  0  0  0  0
   -3.7857    2.7766   -2.1420 N   0  0  0  0  0  0  0  0  0  0  0  0
   -2.5060    2.9034   -2.6658 C   0  0  0  0  0  0  0  0  0  0  0  0
   -1.3321    3.5343   -1.9491 C   0  0  0  0  0  0  0  0  0  0  0  0
   -0.0434    3.6082   -2.8014 C   0  0  0  0  0  0  0  0  0  0  0  0
    1.1347    4.0999   -1.9995 C   0  0  0  0  0  0  0  0  0  0  0  0
    1.2428    3.3648   -0.7113 N   0  0  0  0  0  0  0  0  0  0  0  0
    2.3745    2.7845   -0.2109 C   0  0  0  0  0  0  0  0  0  0  0  0
    3.5343    2.6307   -0.9268 C   0  0  0  0  0  0  0  0  0  0  0  0
    4.5932    2.4842   -1.3680 C   0  0  0  0  0  0  0  0  0  0  0  0
    5.8290    2.3816   -2.0253 C   0  0  0  0  0  0  0  0  0  0  0  0
    6.7455    3.3133   -1.4253 N   0  0  0  0  0  0  0  0  0  0  0  0
    6.5856    4.6910   -1.6910 C   0  0  0  0  0  0  0  0  0  0  0  0
    7.4301    2.9614   -0.2342 C   0  0  0  0  0  0  0  0  0  0  0  0
    6.3635    0.9635   -1.9289 C   0  0  0  0  0  0  0  0  0  0  0  0
    5.6491    2.6769   -3.5029 C   0  0  0  0  0  0  0  0  0  0  0  0
    2.3621    2.3273    0.9563 O   0  0  0  0  0  0  0  0  0  0  0  0
    0.0604    3.2464    0.0598 C   0  0  0  0  0  0  0  0  0  0  0  0
   -1.0264    2.6533   -0.7514 C   0  0  0  0  0  0  0  0  0  0  0  0
   -2.3100    2.4391   -3.8039 O   0  0  0  0  0  0  0  0  0  0  0  0
   -4.1231    3.2375   -0.7826 C   0  0  0  0  0  0  0  0  0  0  0  0
   -4.4437    0.1224   -1.5702 O   0  0  0  0  0  0  0  0  0  0  0  0
   -2.9450   -1.8215   -4.8285 C   0  0  0  0  0  0  0  0  0  0  0  0
   -1.6669   -0.9721   -4.6004 C   0  0  0  0  0  0  0  0  0  0  0  0
   -0.8802   -1.6475   -3.5516 C   0  0  0  0  0  0  0  0  0  0  0  0
    0.3530   -0.9664   -3.2908 N   0  0  0  0  0  0  0  0  0  0  0  0
    1.1986   -0.7404   -4.4860 C   0  0  0  0  0  0  0  0  0  0  0  0
    0.3511   -0.1450   -5.6288 C   0  0  0  0  0  0  0  0  0  0  0  0
   -0.8842   -0.9267   -5.8352 O   0  0  0  0  0  0  0  0  0  0  0  0
   -5.9822   -2.2162   -5.0792 O   0  0  0  0  0  0  0  0  0  0  0  0
   -6.4953   -4.6061   -3.6528 C   0  0  0  0  0  0  0  0  0  0  0  0
   -5.9080   -6.0360   -3.6810 C   0  0  0  0  0  0  0  0  0  0  0  0
   -5.0429   -6.3364   -2.4527 C   0  0  0  0  0  0  0  0  0  0  0  0
   -3.0774   -6.5433   -0.4312 O   0  0  0  0  0  0  0  0  0  0  0  0
    0.5710   -1.4342    0.3359 C   0  0  0  0  0  0  0  0  0  0  0  0
    1.9421   -1.2979    0.5743 C   0  0  0  0  0  0  0  0  0  0  0  0
    2.8312   -1.0565   -0.5246 C   0  0  0  0  0  0  0  0  0  0  0  0
    2.2619   -0.9479   -1.7968 C   0  0  0  0  0  0  0  0  0  0  0  0
    0.8888   -1.0767   -2.0076 C   0  0  0  0  0  0  0  0  0  0  0  0
    0.0177   -1.3122   -0.9282 C   0  0  0  0  0  0  0  0  0  0  0  0
   -1.6575    4.8296   -1.5570 F   0  0  0  0  0  0  0  0  0  0  0  0
  1  2  1  0  0  0  0
  2  3  1  0  0  0  0
  2  5  1  0  0  0  0
  3  4  1  0  0  0  0
  5  6  4  0  0  0  0
  5 10  4  0  0  0  0
  6  7  4  0  0  0  0
  7  8  4  0  0  0  0
  8  9  4  0  0  0  0
  9 10  4  0  0  0  0
 10 11  1  0  0  0  0
 11 12  4  0  0  0  0
 11 15  4  0  0  0  0
 12 13  1  0  0  0  0
 12 68  4  0  0  0  0
 13 14  1  0  0  0  0
 15 16  1  0  0  0  0
 15 67  4  0  0  0  0
 16 17  1  0  0  0  0
 17 18  1  0  0  0  0
 17 19  1  0  0  0  0
 17 20  1  0  0  0  0
 20 21  1  0  0  0  0
 21 22  1  0  0  0  0
 22 23  1  0  0  0  0
 22 66  2  0  0  0  0
 23 24  1  0  0  0  0
 23 65  1  0  0  0  0
 24 25  1  0  0  0  0
 25 26  1  0  0  0  0
 25 63  1  0  0  0  0
 26 27  1  0  0  0  0
 26 62  2  0  0  0  0
 27 28  1  0  0  0  0
 27 55  1  0  0  0  0
 28 29  1  0  0  0  0
 29 30  1  0  0  0  0
 29 54  2  0  0  0  0
 30 31  1  0  0  0  0
 30 34  1  0  0  0  0
 31 32  1  0  0  0  0
 31 33  1  0  0  0  0
 34 35  1  0  0  0  0
 34 53  1  0  0  0  0
 35 36  1  0  0  0  0
 35 52  2  0  0  0  0
 36 37  1  0  0  0  0
 36 51  1  0  0  0  0
 36 73  1  0  0  0  0
 37 38  1  0  0  0  0
 38 39  1  0  0  0  0
 39 40  1  0  0  0  0
 39 50  1  0  0  0  0
 40 41  1  0  0  0  0
 40 49  2  0  0  0  0
 41 42  1  0  0  0  0
 42 43  1  0  0  0  0
 43 44  1  0  0  0  0
 43 47  1  0  0  0  0
 43 48  1  0  0  0  0
 44 45  1  0  0  0  0
 44 46  1  0  0  0  0
 50 51  1  0  0  0  0
 55 56  1  0  0  0  0
 56 57  1  0  0  0  0
 56 61  1  0  0  0  0
 57 58  1  0  0  0  0
 58 59  1  0  0  0  0
 58 71  1  0  0  0  0
 59 60  1  0  0  0  0
 60 61  1  0  0  0  0
 63 64  1  0  0  0  0
 64 65  1  0  0  0  0
 67 68  4  0  0  0  0
 67 72  4  0  0  0  0
 68 69  4  0  0  0  0
 69 70  4  0  0  0  0
 70 71  4  0  0  0  0
 71 72  4  0  0  0  0
M  END
$$$$
