mol_ETKDG4_228
  PyMOL3.1          3D                             0

 73 79  0  0  0  0  0  0  0  0999 V2000
   -2.7571    2.9593    2.2709 C   0  0  0  0  0  0  0  0  0  0  0  0
   -2.7957    1.4839    2.1661 C   0  0  0  0  0  0  0  0  0  0  0  0
   -3.0626    0.8055    3.3898 O   0  0  0  0  0  0  0  0  0  0  0  0
   -1.9737    0.5600    4.2312 C   0  0  0  0  0  0  0  0  0  0  0  0
   -3.7917    1.0017    1.1957 C   0  0  0  0  0  0  0  0  0  0  0  0
   -5.0601    1.0256    1.5637 N   0  0  0  0  0  0  0  0  0  0  0  0
   -6.0438    0.6345    0.7265 C   0  0  0  0  0  0  0  0  0  0  0  0
   -5.7694    0.2004   -0.5750 C   0  0  0  0  0  0  0  0  0  0  0  0
   -4.4349    0.1744   -0.9909 C   0  0  0  0  0  0  0  0  0  0  0  0
   -3.4408    0.5631   -0.0790 C   0  0  0  0  0  0  0  0  0  0  0  0
   -2.0728    0.5022   -0.5195 C   0  0  0  0  0  0  0  0  0  0  0  0
   -1.5062    1.4567   -1.2924 N   0  0  0  0  0  0  0  0  0  0  0  0
   -2.1270    2.7450   -1.7673 C   0  0  0  0  0  0  0  0  0  0  0  0
   -2.4068    2.7911   -3.1970 C   0  0  0  0  0  0  0  0  0  0  0  0
   -1.1207   -0.4959   -0.1659 C   0  0  0  0  0  0  0  0  0  0  0  0
   -1.1961   -1.6720    0.7722 C   0  0  0  0  0  0  0  0  0  0  0  0
   -1.7555   -3.0439    0.2088 C   0  0  0  0  0  0  0  0  0  0  0  0
   -3.2323   -2.9711   -0.1220 C   0  0  0  0  0  0  0  0  0  0  0  0
   -1.6539   -4.0540    1.3200 C   0  0  0  0  0  0  0  0  0  0  0  0
   -1.0126   -3.5465   -1.0114 C   0  0  0  0  0  0  0  0  0  0  0  0
    0.2765   -4.3033   -0.7526 O   0  0  0  0  0  0  0  0  0  0  0  0
    0.7224   -5.4317   -1.5173 C   0  0  0  0  0  0  0  0  0  0  0  0
    2.0684   -6.0765   -1.1846 C   0  0  0  0  0  0  0  0  0  0  0  0
    2.4524   -5.7587    0.1599 N   0  0  0  0  0  0  0  0  0  0  0  0
    3.6390   -6.3264    0.6494 N   0  0  0  0  0  0  0  0  0  0  0  0
    4.6564   -5.5506    1.1412 C   0  0  0  0  0  0  0  0  0  0  0  0
    4.5039   -4.0666    1.0695 C   0  0  0  0  0  0  0  0  0  0  0  0
    5.0208   -3.3703    2.2330 N   0  0  0  0  0  0  0  0  0  0  0  0
    4.2294   -2.8321    3.1829 C   0  0  0  0  0  0  0  0  0  0  0  0
    4.9148   -1.9744    4.1934 C   0  0  0  0  0  0  0  0  0  0  0  0
    5.1251   -2.6682    5.5787 C   0  0  0  0  0  0  0  0  0  0  0  0
    6.0861   -1.9267    6.4549 C   0  0  0  0  0  0  0  0  0  0  0  0
    5.4354   -4.1257    5.4736 C   0  0  0  0  0  0  0  0  0  0  0  0
    4.1118   -0.7467    4.3005 N   0  0  0  0  0  0  0  0  0  0  0  0
    4.3334    0.2709    3.3919 C   0  0  0  0  0  0  0  0  0  0  0  0
    3.5221    1.5472    3.3236 C   0  0  0  0  0  0  0  0  0  0  0  0
    2.2364    1.1968    2.6108 C   0  0  0  0  0  0  0  0  0  0  0  0
    1.3210    2.3735    2.5316 C   0  0  0  0  0  0  0  0  0  0  0  0
    2.0204    3.4654    1.8463 N   0  0  0  0  0  0  0  0  0  0  0  0
    1.4438    4.0534    0.7448 C   0  0  0  0  0  0  0  0  0  0  0  0
    2.1827    4.7307   -0.2178 C   0  0  0  0  0  0  0  0  0  0  0  0
    2.6511    5.3284   -1.1044 C   0  0  0  0  0  0  0  0  0  0  0  0
    3.3559    6.0058   -2.1217 C   0  0  0  0  0  0  0  0  0  0  0  0
    2.4450    6.5433   -3.0801 N   0  0  0  0  0  0  0  0  0  0  0  0
    1.5544    7.5736   -2.6969 C   0  0  0  0  0  0  0  0  0  0  0  0
    2.1994    5.9235   -4.3175 C   0  0  0  0  0  0  0  0  0  0  0  0
    4.3326    5.0531   -2.7662 C   0  0  0  0  0  0  0  0  0  0  0  0
    4.1883    7.1386   -1.5249 C   0  0  0  0  0  0  0  0  0  0  0  0
    0.2368    3.9492    0.5608 O   0  0  0  0  0  0  0  0  0  0  0  0
    3.3002    3.8509    2.3875 C   0  0  0  0  0  0  0  0  0  0  0  0
    4.2178    2.6810    2.5473 C   0  0  0  0  0  0  0  0  0  0  0  0
    5.2445    0.1115    2.5551 O   0  0  0  0  0  0  0  0  0  0  0  0
    3.0206   -0.7003    5.2897 C   0  0  0  0  0  0  0  0  0  0  0  0
    3.0227   -2.9557    3.1257 O   0  0  0  0  0  0  0  0  0  0  0  0
    5.2760   -3.5699   -0.2116 C   0  0  0  0  0  0  0  0  0  0  0  0
    5.1279   -2.0685   -0.5054 C   0  0  0  0  0  0  0  0  0  0  0  0
    3.7883   -1.8819   -1.1166 C   0  0  0  0  0  0  0  0  0  0  0  0
    3.6007   -0.5239   -1.5301 N   0  0  0  0  0  0  0  0  0  0  0  0
    4.6578    0.0085   -2.4103 C   0  0  0  0  0  0  0  0  0  0  0  0
    6.0438   -0.2939   -1.8252 C   0  0  0  0  0  0  0  0  0  0  0  0
    6.1623   -1.7151   -1.4691 O   0  0  0  0  0  0  0  0  0  0  0  0
    5.7180   -6.0322    1.5718 O   0  0  0  0  0  0  0  0  0  0  0  0
    3.6921   -7.7823    0.6475 C   0  0  0  0  0  0  0  0  0  0  0  0
    3.3244   -8.2761   -0.7721 C   0  0  0  0  0  0  0  0  0  0  0  0
    2.0342   -7.6378   -1.3008 C   0  0  0  0  0  0  0  0  0  0  0  0
    0.0724   -5.9241   -2.4646 O   0  0  0  0  0  0  0  0  0  0  0  0
    0.0416   -0.0834   -0.8336 C   0  0  0  0  0  0  0  0  0  0  0  0
   -0.2342    1.1092   -1.5060 C   0  0  0  0  0  0  0  0  0  0  0  0
    0.7992    1.7601   -2.2502 C   0  0  0  0  0  0  0  0  0  0  0  0
    2.0565    1.1759   -2.2280 C   0  0  0  0  0  0  0  0  0  0  0  0
    2.3145    0.0001   -1.5336 C   0  0  0  0  0  0  0  0  0  0  0  0
    1.2958   -0.6591   -0.8234 C   0  0  0  0  0  0  0  0  0  0  0  0
    3.3063    2.0518    4.5877 F   0  0  0  0  0  0  0  0  0  0  0  0
  1  2  1  0  0  0  0
  2  3  1  0  0  0  0
  2  5  1  0  0  0  0
  3  4  1  0  0  0  0
  5  6  4  0  0  0  0
  5 10  4  0  0  0  0
  6  7  4  0  0  0  0
  7  8  4  0  0  0  0
  8  9  4  0  0  0  0
  9 10  4  0  0  0  0
 10 11  1  0  0  0  0
 11 12  4  0  0  0  0
 11 15  4  0  0  0  0
 12 13  1  0  0  0  0
 12 68  4  0  0  0  0
 13 14  1  0  0  0  0
 15 16  1  0  0  0  0
 15 67  4  0  0  0  0
 16 17  1  0  0  0  0
 17 18  1  0  0  0  0
 17 19  1  0  0  0  0
 17 20  1  0  0  0  0
 20 21  1  0  0  0  0
 21 22  1  0  0  0  0
 22 23  1  0  0  0  0
 22 66  2  0  0  0  0
 23 24  1  0  0  0  0
 23 65  1  0  0  0  0
 24 25  1  0  0  0  0
 25 26  1  0  0  0  0
 25 63  1  0  0  0  0
 26 27  1  0  0  0  0
 26 62  2  0  0  0  0
 27 28  1  0  0  0  0
 27 55  1  0  0  0  0
 28 29  1  0  0  0  0
 29 30  1  0  0  0  0
 29 54  2  0  0  0  0
 30 31  1  0  0  0  0
 30 34  1  0  0  0  0
 31 32  1  0  0  0  0
 31 33  1  0  0  0  0
 34 35  1  0  0  0  0
 34 53  1  0  0  0  0
 35 36  1  0  0  0  0
 35 52  2  0  0  0  0
 36 37  1  0  0  0  0
 36 51  1  0  0  0  0
 36 73  1  0  0  0  0
 37 38  1  0  0  0  0
 38 39  1  0  0  0  0
 39 40  1  0  0  0  0
 39 50  1  0  0  0  0
 40 41  1  0  0  0  0
 40 49  2  0  0  0  0
 41 42  1  0  0  0  0
 42 43  1  0  0  0  0
 43 44  1  0  0  0  0
 43 47  1  0  0  0  0
 43 48  1  0  0  0  0
 44 45  1  0  0  0  0
 44 46  1  0  0  0  0
 50 51  1  0  0  0  0
 55 56  1  0  0  0  0
 56 57  1  0  0  0  0
 56 61  1  0  0  0  0
 57 58  1  0  0  0  0
 58 59  1  0  0  0  0
 58 71  1  0  0  0  0
 59 60  1  0  0  0  0
 60 61  1  0  0  0  0
 63 64  1  0  0  0  0
 64 65  1  0  0  0  0
 67 68  4  0  0  0  0
 67 72  4  0  0  0  0
 68 69  4  0  0  0  0
 69 70  4  0  0  0  0
 70 71  4  0  0  0  0
 71 72  4  0  0  0  0
M  END
$$$$
