mol_ETKDG5_251
  PyMOL3.1          3D                             0

 73 79  0  0  0  0  0  0  0  0999 V2000
   -3.0310    2.4471   -3.4676 C   0  0  0  0  0  0  0  0  0  0  0  0
   -4.0419    2.6996   -2.4199 C   0  0  0  0  0  0  0  0  0  0  0  0
   -4.2305    4.0949   -2.1249 O   0  0  0  0  0  0  0  0  0  0  0  0
   -3.7710    4.5229   -0.8706 C   0  0  0  0  0  0  0  0  0  0  0  0
   -5.3659    2.1459   -2.7339 C   0  0  0  0  0  0  0  0  0  0  0  0
   -6.2248    2.9274   -3.3558 N   0  0  0  0  0  0  0  0  0  0  0  0
   -7.4672    2.5061   -3.6781 C   0  0  0  0  0  0  0  0  0  0  0  0
   -7.8937    1.2104   -3.3885 C   0  0  0  0  0  0  0  0  0  0  0  0
   -6.9958    0.3546   -2.7504 C   0  0  0  0  0  0  0  0  0  0  0  0
   -5.7165    0.8422   -2.4124 C   0  0  0  0  0  0  0  0  0  0  0  0
   -4.8098   -0.0609   -1.7441 C   0  0  0  0  0  0  0  0  0  0  0  0
   -4.1456   -1.0400   -2.3925 N   0  0  0  0  0  0  0  0  0  0  0  0
   -4.1441   -1.3120   -3.8700 C   0  0  0  0  0  0  0  0  0  0  0  0
   -4.8623   -2.5251   -4.2427 C   0  0  0  0  0  0  0  0  0  0  0  0
   -4.4317   -0.0347   -0.3804 C   0  0  0  0  0  0  0  0  0  0  0  0
   -4.7280    0.9637    0.6936 C   0  0  0  0  0  0  0  0  0  0  0  0
   -6.0506    0.6989    1.4994 C   0  0  0  0  0  0  0  0  0  0  0  0
   -7.2989    0.8411    0.6581 C   0  0  0  0  0  0  0  0  0  0  0  0
   -6.1790    1.7612    2.5492 C   0  0  0  0  0  0  0  0  0  0  0  0
   -5.9886   -0.6681    2.0942 C   0  0  0  0  0  0  0  0  0  0  0  0
   -5.2909   -0.7057    3.4354 O   0  0  0  0  0  0  0  0  0  0  0  0
   -5.8461   -1.2943    4.5981 C   0  0  0  0  0  0  0  0  0  0  0  0
   -5.0650   -1.2668    5.8891 C   0  0  0  0  0  0  0  0  0  0  0  0
   -3.9379   -0.3760    5.8009 N   0  0  0  0  0  0  0  0  0  0  0  0
   -3.1562   -0.2466    6.9500 N   0  0  0  0  0  0  0  0  0  0  0  0
   -1.8065   -0.4659    6.9222 C   0  0  0  0  0  0  0  0  0  0  0  0
   -1.1573   -0.8117    5.6152 C   0  0  0  0  0  0  0  0  0  0  0  0
    0.1967   -0.3086    5.5196 N   0  0  0  0  0  0  0  0  0  0  0  0
    0.5626    0.7009    4.7174 C   0  0  0  0  0  0  0  0  0  0  0  0
    2.0256    0.9731    4.6266 C   0  0  0  0  0  0  0  0  0  0  0  0
    2.5349    2.1397    5.5240 C   0  0  0  0  0  0  0  0  0  0  0  0
    4.0098    2.0806    5.7559 C   0  0  0  0  0  0  0  0  0  0  0  0
    1.7506    2.3319    6.7718 C   0  0  0  0  0  0  0  0  0  0  0  0
    2.3439    1.1928    3.2221 N   0  0  0  0  0  0  0  0  0  0  0  0
    2.5763    0.1002    2.4199 C   0  0  0  0  0  0  0  0  0  0  0  0
    2.8774    0.1671    0.9521 C   0  0  0  0  0  0  0  0  0  0  0  0
    3.7325   -0.9934    0.4333 C   0  0  0  0  0  0  0  0  0  0  0  0
    3.9016   -0.8880   -1.0444 C   0  0  0  0  0  0  0  0  0  0  0  0
    2.5938   -0.6959   -1.7118 N   0  0  0  0  0  0  0  0  0  0  0  0
    2.1671   -1.3943   -2.7881 C   0  0  0  0  0  0  0  0  0  0  0  0
    2.9595   -2.2976   -3.4339 C   0  0  0  0  0  0  0  0  0  0  0  0
    3.5261   -3.0130   -4.1364 C   0  0  0  0  0  0  0  0  0  0  0  0
    4.3281   -3.8705   -4.8882 C   0  0  0  0  0  0  0  0  0  0  0  0
    4.2082   -3.6207   -6.2987 N   0  0  0  0  0  0  0  0  0  0  0  0
    3.7705   -2.3772   -6.7609 C   0  0  0  0  0  0  0  0  0  0  0  0
    4.7550   -4.4868   -7.2511 C   0  0  0  0  0  0  0  0  0  0  0  0
    3.9237   -5.2943   -4.5713 C   0  0  0  0  0  0  0  0  0  0  0  0
    5.7835   -3.6894   -4.4704 C   0  0  0  0  0  0  0  0  0  0  0  0
    1.0066   -1.2173   -3.2179 O   0  0  0  0  0  0  0  0  0  0  0  0
    1.7372    0.3058   -1.1963 C   0  0  0  0  0  0  0  0  0  0  0  0
    1.5423    0.1725    0.2417 C   0  0  0  0  0  0  0  0  0  0  0  0
    2.5001   -1.0316    2.9456 O   0  0  0  0  0  0  0  0  0  0  0  0
    2.2888    2.5671    2.6930 C   0  0  0  0  0  0  0  0  0  0  0  0
   -0.2657    1.2680    4.0215 O   0  0  0  0  0  0  0  0  0  0  0  0
   -1.1123   -2.3795    5.4692 C   0  0  0  0  0  0  0  0  0  0  0  0
   -0.5768   -2.8610    4.1042 C   0  0  0  0  0  0  0  0  0  0  0  0
   -1.6929   -2.6991    3.1401 C   0  0  0  0  0  0  0  0  0  0  0  0
   -1.3497   -3.2101    1.8422 N   0  0  0  0  0  0  0  0  0  0  0  0
   -0.8324   -4.5879    1.8451 C   0  0  0  0  0  0  0  0  0  0  0  0
    0.2281   -4.7770    2.9383 C   0  0  0  0  0  0  0  0  0  0  0  0
   -0.2394   -4.2609    4.2302 O   0  0  0  0  0  0  0  0  0  0  0  0
   -1.1183   -0.4211    7.9542 O   0  0  0  0  0  0  0  0  0  0  0  0
   -3.8695    0.1966    8.1482 C   0  0  0  0  0  0  0  0  0  0  0  0
   -5.1213   -0.6788    8.3567 C   0  0  0  0  0  0  0  0  0  0  0  0
   -5.9501   -0.8143    7.0814 C   0  0  0  0  0  0  0  0  0  0  0  0
   -6.9667   -1.8624    4.6543 O   0  0  0  0  0  0  0  0  0  0  0  0
   -3.5689   -1.1377   -0.2447 C   0  0  0  0  0  0  0  0  0  0  0  0
   -3.4070   -1.7081   -1.4952 C   0  0  0  0  0  0  0  0  0  0  0  0
   -2.5143   -2.8191   -1.6538 C   0  0  0  0  0  0  0  0  0  0  0  0
   -1.8533   -3.2760   -0.5197 C   0  0  0  0  0  0  0  0  0  0  0  0
   -2.0389   -2.7070    0.7341 C   0  0  0  0  0  0  0  0  0  0  0  0
   -2.8990   -1.6001    0.8868 C   0  0  0  0  0  0  0  0  0  0  0  0
    3.5893    1.2948    0.6289 F   0  0  0  0  0  0  0  0  0  0  0  0
  1  2  1  0  0  0  0
  2  3  1  0  0  0  0
  2  5  1  0  0  0  0
  3  4  1  0  0  0  0
  5  6  4  0  0  0  0
  5 10  4  0  0  0  0
  6  7  4  0  0  0  0
  7  8  4  0  0  0  0
  8  9  4  0  0  0  0
  9 10  4  0  0  0  0
 10 11  1  0  0  0  0
 11 12  4  0  0  0  0
 11 15  4  0  0  0  0
 12 13  1  0  0  0  0
 12 68  4  0  0  0  0
 13 14  1  0  0  0  0
 15 16  1  0  0  0  0
 15 67  4  0  0  0  0
 16 17  1  0  0  0  0
 17 18  1  0  0  0  0
 17 19  1  0  0  0  0
 17 20  1  0  0  0  0
 20 21  1  0  0  0  0
 21 22  1  0  0  0  0
 22 23  1  0  0  0  0
 22 66  2  0  0  0  0
 23 24  1  0  0  0  0
 23 65  1  0  0  0  0
 24 25  1  0  0  0  0
 25 26  1  0  0  0  0
 25 63  1  0  0  0  0
 26 27  1  0  0  0  0
 26 62  2  0  0  0  0
 27 28  1  0  0  0  0
 27 55  1  0  0  0  0
 28 29  1  0  0  0  0
 29 30  1  0  0  0  0
 29 54  2  0  0  0  0
 30 31  1  0  0  0  0
 30 34  1  0  0  0  0
 31 32  1  0  0  0  0
 31 33  1  0  0  0  0
 34 35  1  0  0  0  0
 34 53  1  0  0  0  0
 35 36  1  0  0  0  0
 35 52  2  0  0  0  0
 36 37  1  0  0  0  0
 36 51  1  0  0  0  0
 36 73  1  0  0  0  0
 37 38  1  0  0  0  0
 38 39  1  0  0  0  0
 39 40  1  0  0  0  0
 39 50  1  0  0  0  0
 40 41  1  0  0  0  0
 40 49  2  0  0  0  0
 41 42  1  0  0  0  0
 42 43  1  0  0  0  0
 43 44  1  0  0  0  0
 43 47  1  0  0  0  0
 43 48  1  0  0  0  0
 44 45  1  0  0  0  0
 44 46  1  0  0  0  0
 50 51  1  0  0  0  0
 55 56  1  0  0  0  0
 56 57  1  0  0  0  0
 56 61  1  0  0  0  0
 57 58  1  0  0  0  0
 58 59  1  0  0  0  0
 58 71  1  0  0  0  0
 59 60  1  0  0  0  0
 60 61  1  0  0  0  0
 63 64  1  0  0  0  0
 64 65  1  0  0  0  0
 67 68  4  0  0  0  0
 67 72  4  0  0  0  0
 68 69  4  0  0  0  0
 69 70  4  0  0  0  0
 70 71  4  0  0  0  0
 71 72  4  0  0  0  0
M  END
$$$$
