mol_ETKDG4_209
  PyMOL3.1          3D                             0

 73 79  0  0  0  0  0  0  0  0999 V2000
    5.4726   -4.1601   -0.4974 C   0  0  0  0  0  0  0  0  0  0  0  0
    4.9606   -3.0043    0.2671 C   0  0  0  0  0  0  0  0  0  0  0  0
    5.0740   -3.0984    1.6740 O   0  0  0  0  0  0  0  0  0  0  0  0
    4.2077   -3.9750    2.3523 C   0  0  0  0  0  0  0  0  0  0  0  0
    5.5898   -1.7279   -0.1367 C   0  0  0  0  0  0  0  0  0  0  0  0
    6.7900   -1.4466    0.3401 N   0  0  0  0  0  0  0  0  0  0  0  0
    7.4392   -0.3193   -0.0109 C   0  0  0  0  0  0  0  0  0  0  0  0
    6.8814    0.5985   -0.9066 C   0  0  0  0  0  0  0  0  0  0  0  0
    5.6178    0.3119   -1.4379 C   0  0  0  0  0  0  0  0  0  0  0  0
    4.9698   -0.8579   -1.0285 C   0  0  0  0  0  0  0  0  0  0  0  0
    3.6513   -1.1148   -1.5461 C   0  0  0  0  0  0  0  0  0  0  0  0
    3.4154   -1.6991   -2.7506 N   0  0  0  0  0  0  0  0  0  0  0  0
    4.4170   -2.1918   -3.7532 C   0  0  0  0  0  0  0  0  0  0  0  0
    4.5676   -1.2789   -4.8974 C   0  0  0  0  0  0  0  0  0  0  0  0
    2.4360   -0.8702   -0.8628 C   0  0  0  0  0  0  0  0  0  0  0  0
    2.1483   -0.3719    0.5186 C   0  0  0  0  0  0  0  0  0  0  0  0
    2.1562    1.1853    0.7499 C   0  0  0  0  0  0  0  0  0  0  0  0
    1.5175    1.4317    2.0993 C   0  0  0  0  0  0  0  0  0  0  0  0
    3.5484    1.7070    0.8972 C   0  0  0  0  0  0  0  0  0  0  0  0
    1.4163    1.9867   -0.3135 C   0  0  0  0  0  0  0  0  0  0  0  0
   -0.0245    2.2622   -0.0205 O   0  0  0  0  0  0  0  0  0  0  0  0
   -0.7233    3.4346   -0.3587 C   0  0  0  0  0  0  0  0  0  0  0  0
   -2.1691    3.5403    0.1023 C   0  0  0  0  0  0  0  0  0  0  0  0
   -2.3819    2.5917    1.1509 N   0  0  0  0  0  0  0  0  0  0  0  0
   -3.6077    2.5578    1.7918 N   0  0  0  0  0  0  0  0  0  0  0  0
   -4.3023    1.3832    1.9025 C   0  0  0  0  0  0  0  0  0  0  0  0
   -3.7356    0.1659    1.2296 C   0  0  0  0  0  0  0  0  0  0  0  0
   -3.8404   -1.0258    2.0518 N   0  0  0  0  0  0  0  0  0  0  0  0
   -2.7678   -1.6130    2.6405 C   0  0  0  0  0  0  0  0  0  0  0  0
   -3.0206   -2.9200    3.3188 C   0  0  0  0  0  0  0  0  0  0  0  0
   -3.2445   -2.8509    4.8545 C   0  0  0  0  0  0  0  0  0  0  0  0
   -3.6137   -1.5395    5.3938 C   0  0  0  0  0  0  0  0  0  0  0  0
   -4.1035   -3.9871    5.3423 C   0  0  0  0  0  0  0  0  0  0  0  0
   -1.8863   -3.7929    2.9786 N   0  0  0  0  0  0  0  0  0  0  0  0
   -1.9114   -4.4538    1.7692 C   0  0  0  0  0  0  0  0  0  0  0  0
   -0.8134   -5.3319    1.2217 C   0  0  0  0  0  0  0  0  0  0  0  0
   -1.3316   -6.2521    0.1068 C   0  0  0  0  0  0  0  0  0  0  0  0
   -0.2176   -6.9756   -0.5895 C   0  0  0  0  0  0  0  0  0  0  0  0
    0.8227   -6.0128   -0.9990 N   0  0  0  0  0  0  0  0  0  0  0  0
    1.2470   -5.8439   -2.2910 C   0  0  0  0  0  0  0  0  0  0  0  0
    0.4173   -6.1015   -3.3637 C   0  0  0  0  0  0  0  0  0  0  0  0
   -0.2186   -6.3492   -4.3001 C   0  0  0  0  0  0  0  0  0  0  0  0
   -1.1660   -6.6977   -5.2825 C   0  0  0  0  0  0  0  0  0  0  0  0
   -1.4533   -8.0895   -5.1925 N   0  0  0  0  0  0  0  0  0  0  0  0
   -1.0143   -9.0032   -6.1623 C   0  0  0  0  0  0  0  0  0  0  0  0
   -2.0856   -8.6098   -4.0532 C   0  0  0  0  0  0  0  0  0  0  0  0
   -2.4531   -5.9065   -5.0846 C   0  0  0  0  0  0  0  0  0  0  0  0
   -0.6509   -6.3416   -6.6510 C   0  0  0  0  0  0  0  0  0  0  0  0
    2.3818   -5.3800   -2.5139 O   0  0  0  0  0  0  0  0  0  0  0  0
    1.3580   -5.1799    0.0312 C   0  0  0  0  0  0  0  0  0  0  0  0
    0.2447   -4.3964    0.6549 C   0  0  0  0  0  0  0  0  0  0  0  0
   -2.9175   -4.2821    1.0551 O   0  0  0  0  0  0  0  0  0  0  0  0
   -0.7262   -3.8403    3.8809 C   0  0  0  0  0  0  0  0  0  0  0  0
   -1.6488   -1.1429    2.5041 O   0  0  0  0  0  0  0  0  0  0  0  0
   -4.4774   -0.0600   -0.1429 C   0  0  0  0  0  0  0  0  0  0  0  0
   -3.9381   -1.2363   -0.9968 C   0  0  0  0  0  0  0  0  0  0  0  0
   -2.6438   -0.8160   -1.5796 C   0  0  0  0  0  0  0  0  0  0  0  0
   -2.0961   -1.8141   -2.4581 N   0  0  0  0  0  0  0  0  0  0  0  0
   -3.0076   -2.2729   -3.5218 C   0  0  0  0  0  0  0  0  0  0  0  0
   -4.3929   -2.5938   -2.9319 C   0  0  0  0  0  0  0  0  0  0  0  0
   -4.8839   -1.5043   -2.0683 O   0  0  0  0  0  0  0  0  0  0  0  0
   -5.3860    1.3175    2.4936 O   0  0  0  0  0  0  0  0  0  0  0  0
   -4.0560    3.8211    2.3806 C   0  0  0  0  0  0  0  0  0  0  0  0
   -3.9097    4.9538    1.3295 C   0  0  0  0  0  0  0  0  0  0  0  0
   -2.5371    4.9521    0.6504 C   0  0  0  0  0  0  0  0  0  0  0  0
   -0.2336    4.3826   -1.0058 O   0  0  0  0  0  0  0  0  0  0  0  0
    1.4552   -1.2976   -1.7689 C   0  0  0  0  0  0  0  0  0  0  0  0
    2.0895   -1.8003   -2.9059 C   0  0  0  0  0  0  0  0  0  0  0  0
    1.2883   -2.3372   -3.9719 C   0  0  0  0  0  0  0  0  0  0  0  0
   -0.1048   -2.3245   -3.7934 C   0  0  0  0  0  0  0  0  0  0  0  0
   -0.7038   -1.8141   -2.6350 C   0  0  0  0  0  0  0  0  0  0  0  0
    0.0836   -1.3057   -1.6003 C   0  0  0  0  0  0  0  0  0  0  0  0
   -0.2674   -6.1455    2.2007 F   0  0  0  0  0  0  0  0  0  0  0  0
  1  2  1  0  0  0  0
  2  3  1  0  0  0  0
  2  5  1  0  0  0  0
  3  4  1  0  0  0  0
  5  6  4  0  0  0  0
  5 10  4  0  0  0  0
  6  7  4  0  0  0  0
  7  8  4  0  0  0  0
  8  9  4  0  0  0  0
  9 10  4  0  0  0  0
 10 11  1  0  0  0  0
 11 12  4  0  0  0  0
 11 15  4  0  0  0  0
 12 13  1  0  0  0  0
 12 68  4  0  0  0  0
 13 14  1  0  0  0  0
 15 16  1  0  0  0  0
 15 67  4  0  0  0  0
 16 17  1  0  0  0  0
 17 18  1  0  0  0  0
 17 19  1  0  0  0  0
 17 20  1  0  0  0  0
 20 21  1  0  0  0  0
 21 22  1  0  0  0  0
 22 23  1  0  0  0  0
 22 66  2  0  0  0  0
 23 24  1  0  0  0  0
 23 65  1  0  0  0  0
 24 25  1  0  0  0  0
 25 26  1  0  0  0  0
 25 63  1  0  0  0  0
 26 27  1  0  0  0  0
 26 62  2  0  0  0  0
 27 28  1  0  0  0  0
 27 55  1  0  0  0  0
 28 29  1  0  0  0  0
 29 30  1  0  0  0  0
 29 54  2  0  0  0  0
 30 31  1  0  0  0  0
 30 34  1  0  0  0  0
 31 32  1  0  0  0  0
 31 33  1  0  0  0  0
 34 35  1  0  0  0  0
 34 53  1  0  0  0  0
 35 36  1  0  0  0  0
 35 52  2  0  0  0  0
 36 37  1  0  0  0  0
 36 51  1  0  0  0  0
 36 73  1  0  0  0  0
 37 38  1  0  0  0  0
 38 39  1  0  0  0  0
 39 40  1  0  0  0  0
 39 50  1  0  0  0  0
 40 41  1  0  0  0  0
 40 49  2  0  0  0  0
 41 42  1  0  0  0  0
 42 43  1  0  0  0  0
 43 44  1  0  0  0  0
 43 47  1  0  0  0  0
 43 48  1  0  0  0  0
 44 45  1  0  0  0  0
 44 46  1  0  0  0  0
 50 51  1  0  0  0  0
 55 56  1  0  0  0  0
 56 57  1  0  0  0  0
 56 61  1  0  0  0  0
 57 58  1  0  0  0  0
 58 59  1  0  0  0  0
 58 71  1  0  0  0  0
 59 60  1  0  0  0  0
 60 61  1  0  0  0  0
 63 64  1  0  0  0  0
 64 65  1  0  0  0  0
 67 68  4  0  0  0  0
 67 72  4  0  0  0  0
 68 69  4  0  0  0  0
 69 70  4  0  0  0  0
 70 71  4  0  0  0  0
 71 72  4  0  0  0  0
M  END
$$$$
