mol_ETKDG1_55
  PyMOL3.1          3D                             0

 73 79  0  0  0  0  0  0  0  0999 V2000
   -1.6215   -5.3175    3.5267 C   0  0  0  0  0  0  0  0  0  0  0  0
   -2.3054   -4.0242    3.3037 C   0  0  0  0  0  0  0  0  0  0  0  0
   -3.4087   -4.0680    2.4150 O   0  0  0  0  0  0  0  0  0  0  0  0
   -3.1036   -4.0947    1.0401 C   0  0  0  0  0  0  0  0  0  0  0  0
   -2.7741   -3.4107    4.5589 C   0  0  0  0  0  0  0  0  0  0  0  0
   -3.9055   -3.8488    5.0773 N   0  0  0  0  0  0  0  0  0  0  0  0
   -4.3683   -3.3733    6.2477 C   0  0  0  0  0  0  0  0  0  0  0  0
   -3.6719   -2.4053    6.9658 C   0  0  0  0  0  0  0  0  0  0  0  0
   -2.4636   -1.9334    6.4390 C   0  0  0  0  0  0  0  0  0  0  0  0
   -2.0336   -2.4313    5.2089 C   0  0  0  0  0  0  0  0  0  0  0  0
   -0.8099   -1.9128    4.6518 C   0  0  0  0  0  0  0  0  0  0  0  0
    0.4143   -2.3495    5.0287 N   0  0  0  0  0  0  0  0  0  0  0  0
    0.7442   -3.4098    6.0384 C   0  0  0  0  0  0  0  0  0  0  0  0
    1.2271   -2.8578    7.3072 C   0  0  0  0  0  0  0  0  0  0  0  0
   -0.7063   -0.9583    3.6052 C   0  0  0  0  0  0  0  0  0  0  0  0
   -1.7502   -0.2529    2.7855 C   0  0  0  0  0  0  0  0  0  0  0  0
   -2.3665    1.0626    3.4193 C   0  0  0  0  0  0  0  0  0  0  0  0
   -3.2914    1.6742    2.3851 C   0  0  0  0  0  0  0  0  0  0  0  0
   -3.2517    0.7487    4.5721 C   0  0  0  0  0  0  0  0  0  0  0  0
   -1.3157    2.0808    3.8341 C   0  0  0  0  0  0  0  0  0  0  0  0
   -0.8319    2.9637    2.7103 O   0  0  0  0  0  0  0  0  0  0  0  0
   -0.6946    4.3772    2.7769 C   0  0  0  0  0  0  0  0  0  0  0  0
   -0.2650    5.1272    1.5234 C   0  0  0  0  0  0  0  0  0  0  0  0
   -0.6070    4.3495    0.3778 N   0  0  0  0  0  0  0  0  0  0  0  0
   -0.3659    4.8940   -0.8735 N   0  0  0  0  0  0  0  0  0  0  0  0
    0.3706    4.2227   -1.7936 C   0  0  0  0  0  0  0  0  0  0  0  0
    0.9882    2.9232   -1.3891 C   0  0  0  0  0  0  0  0  0  0  0  0
    0.8915    1.9209   -2.4301 N   0  0  0  0  0  0  0  0  0  0  0  0
   -0.0325    0.9491   -2.4149 C   0  0  0  0  0  0  0  0  0  0  0  0
    0.1026   -0.0884   -3.4759 C   0  0  0  0  0  0  0  0  0  0  0  0
   -0.9526    0.0426   -4.6178 C   0  0  0  0  0  0  0  0  0  0  0  0
   -0.7438   -0.9573   -5.7053 C   0  0  0  0  0  0  0  0  0  0  0  0
   -1.0521    1.4440   -5.1398 C   0  0  0  0  0  0  0  0  0  0  0  0
    0.0338   -1.3770   -2.7911 N   0  0  0  0  0  0  0  0  0  0  0  0
    1.1895   -1.8937   -2.3031 C   0  0  0  0  0  0  0  0  0  0  0  0
    1.3020   -3.1696   -1.5265 C   0  0  0  0  0  0  0  0  0  0  0  0
    2.7335   -3.7048   -1.5321 C   0  0  0  0  0  0  0  0  0  0  0  0
    2.8651   -4.8837   -0.6368 C   0  0  0  0  0  0  0  0  0  0  0  0
    2.3008   -4.5651    0.6842 N   0  0  0  0  0  0  0  0  0  0  0  0
    2.9899   -4.6676    1.8401 C   0  0  0  0  0  0  0  0  0  0  0  0
    4.3405   -4.4575    1.8817 C   0  0  0  0  0  0  0  0  0  0  0  0
    5.4735   -4.3278    2.0209 C   0  0  0  0  0  0  0  0  0  0  0  0
    6.8585   -4.1108    2.0658 C   0  0  0  0  0  0  0  0  0  0  0  0
    7.4704   -4.8834    3.0710 N   0  0  0  0  0  0  0  0  0  0  0  0
    6.7549   -5.2351    4.2221 C   0  0  0  0  0  0  0  0  0  0  0  0
    8.8315   -5.2210    3.0496 C   0  0  0  0  0  0  0  0  0  0  0  0
    7.1282   -2.6360    2.3338 C   0  0  0  0  0  0  0  0  0  0  0  0
    7.4355   -4.4428    0.7051 C   0  0  0  0  0  0  0  0  0  0  0  0
    2.3888   -4.8789    2.8941 O   0  0  0  0  0  0  0  0  0  0  0  0
    0.9677   -4.0764    0.7268 C   0  0  0  0  0  0  0  0  0  0  0  0
    0.8849   -2.8466   -0.1066 C   0  0  0  0  0  0  0  0  0  0  0  0
    2.2269   -1.2374   -2.4874 O   0  0  0  0  0  0  0  0  0  0  0  0
   -1.2801   -1.9970   -2.5587 C   0  0  0  0  0  0  0  0  0  0  0  0
   -0.8359    0.8801   -1.5107 O   0  0  0  0  0  0  0  0  0  0  0  0
    2.5044    3.1596   -1.0364 C   0  0  0  0  0  0  0  0  0  0  0  0
    3.2311    1.9015   -0.5063 C   0  0  0  0  0  0  0  0  0  0  0  0
    2.7627    1.6835    0.8798 C   0  0  0  0  0  0  0  0  0  0  0  0
    3.4361    0.5824    1.4960 N   0  0  0  0  0  0  0  0  0  0  0  0
    4.9004    0.6442    1.4617 C   0  0  0  0  0  0  0  0  0  0  0  0
    5.3858    1.0152    0.0514 C   0  0  0  0  0  0  0  0  0  0  0  0
    4.6570    2.1758   -0.4841 O   0  0  0  0  0  0  0  0  0  0  0  0
    0.5867    4.6778   -2.9246 O   0  0  0  0  0  0  0  0  0  0  0  0
   -1.0036    6.1766   -1.1521 C   0  0  0  0  0  0  0  0  0  0  0  0
   -0.7026    7.1395    0.0112 C   0  0  0  0  0  0  0  0  0  0  0  0
   -0.9707    6.5125    1.3793 C   0  0  0  0  0  0  0  0  0  0  0  0
   -0.9054    5.0437    3.8063 O   0  0  0  0  0  0  0  0  0  0  0  0
    0.6762   -0.8396    3.4099 C   0  0  0  0  0  0  0  0  0  0  0  0
    1.3222   -1.6963    4.2969 C   0  0  0  0  0  0  0  0  0  0  0  0
    2.7495   -1.7719    4.2785 C   0  0  0  0  0  0  0  0  0  0  0  0
    3.4176   -1.0001    3.3284 C   0  0  0  0  0  0  0  0  0  0  0  0
    2.7441   -0.1667    2.4444 C   0  0  0  0  0  0  0  0  0  0  0  0
    1.3495   -0.0723    2.4796 C   0  0  0  0  0  0  0  0  0  0  0  0
    0.4952   -4.1581   -2.0481 F   0  0  0  0  0  0  0  0  0  0  0  0
  1  2  1  0  0  0  0
  2  3  1  0  0  0  0
  2  5  1  0  0  0  0
  3  4  1  0  0  0  0
  5  6  4  0  0  0  0
  5 10  4  0  0  0  0
  6  7  4  0  0  0  0
  7  8  4  0  0  0  0
  8  9  4  0  0  0  0
  9 10  4  0  0  0  0
 10 11  1  0  0  0  0
 11 12  4  0  0  0  0
 11 15  4  0  0  0  0
 12 13  1  0  0  0  0
 12 68  4  0  0  0  0
 13 14  1  0  0  0  0
 15 16  1  0  0  0  0
 15 67  4  0  0  0  0
 16 17  1  0  0  0  0
 17 18  1  0  0  0  0
 17 19  1  0  0  0  0
 17 20  1  0  0  0  0
 20 21  1  0  0  0  0
 21 22  1  0  0  0  0
 22 23  1  0  0  0  0
 22 66  2  0  0  0  0
 23 24  1  0  0  0  0
 23 65  1  0  0  0  0
 24 25  1  0  0  0  0
 25 26  1  0  0  0  0
 25 63  1  0  0  0  0
 26 27  1  0  0  0  0
 26 62  2  0  0  0  0
 27 28  1  0  0  0  0
 27 55  1  0  0  0  0
 28 29  1  0  0  0  0
 29 30  1  0  0  0  0
 29 54  2  0  0  0  0
 30 31  1  0  0  0  0
 30 34  1  0  0  0  0
 31 32  1  0  0  0  0
 31 33  1  0  0  0  0
 34 35  1  0  0  0  0
 34 53  1  0  0  0  0
 35 36  1  0  0  0  0
 35 52  2  0  0  0  0
 36 37  1  0  0  0  0
 36 51  1  0  0  0  0
 36 73  1  0  0  0  0
 37 38  1  0  0  0  0
 38 39  1  0  0  0  0
 39 40  1  0  0  0  0
 39 50  1  0  0  0  0
 40 41  1  0  0  0  0
 40 49  2  0  0  0  0
 41 42  1  0  0  0  0
 42 43  1  0  0  0  0
 43 44  1  0  0  0  0
 43 47  1  0  0  0  0
 43 48  1  0  0  0  0
 44 45  1  0  0  0  0
 44 46  1  0  0  0  0
 50 51  1  0  0  0  0
 55 56  1  0  0  0  0
 56 57  1  0  0  0  0
 56 61  1  0  0  0  0
 57 58  1  0  0  0  0
 58 59  1  0  0  0  0
 58 71  1  0  0  0  0
 59 60  1  0  0  0  0
 60 61  1  0  0  0  0
 63 64  1  0  0  0  0
 64 65  1  0  0  0  0
 67 68  4  0  0  0  0
 67 72  4  0  0  0  0
 68 69  4  0  0  0  0
 69 70  4  0  0  0  0
 70 71  4  0  0  0  0
 71 72  4  0  0  0  0
M  END
$$$$
