mol_bioactive_15
  PyMOL3.1          3D                             0

 73 79  0  0  0  0  0  0  0  0999 V2000
    1.0577   -1.5492   -8.2945 C   0  0  0  0  0  0  0  0  0  0  0  0
    2.2556   -1.5545   -7.4177 C   0  0  0  0  0  0  0  0  0  0  0  0
    3.4581   -1.7778   -8.1719 O   0  0  0  0  0  0  0  0  0  0  0  0
    3.9161   -0.7649   -9.0200 C   0  0  0  0  0  0  0  0  0  0  0  0
    2.2186   -2.5856   -6.3179 C   0  0  0  0  0  0  0  0  0  0  0  0
    2.6486   -3.7942   -6.6277 N   0  0  0  0  0  0  0  0  0  0  0  0
    2.6681   -4.7958   -5.7334 C   0  0  0  0  0  0  0  0  0  0  0  0
    2.2206   -4.6223   -4.4310 C   0  0  0  0  0  0  0  0  0  0  0  0
    1.7374   -3.3698   -4.0773 C   0  0  0  0  0  0  0  0  0  0  0  0
    1.7416   -2.3453   -5.0238 C   0  0  0  0  0  0  0  0  0  0  0  0
    1.2520   -1.0496   -4.6006 C   0  0  0  0  0  0  0  0  0  0  0  0
    0.0410   -0.5590   -4.9251 N   0  0  0  0  0  0  0  0  0  0  0  0
   -0.9972   -1.3192   -5.6562 C   0  0  0  0  0  0  0  0  0  0  0  0
   -1.9010   -0.7487   -6.5189 C   0  0  0  0  0  0  0  0  0  0  0  0
    1.9246   -0.1487   -3.7302 C   0  0  0  0  0  0  0  0  0  0  0  0
    3.1977   -0.2929   -2.9592 C   0  0  0  0  0  0  0  0  0  0  0  0
    4.5427    0.1100   -3.6393 C   0  0  0  0  0  0  0  0  0  0  0  0
    4.8608   -0.7320   -4.8571 C   0  0  0  0  0  0  0  0  0  0  0  0
    5.6424   -0.2020   -2.6481 C   0  0  0  0  0  0  0  0  0  0  0  0
    4.5215    1.5887   -4.0107 C   0  0  0  0  0  0  0  0  0  0  0  0
    4.9485    2.5150   -2.9023 O   0  0  0  0  0  0  0  0  0  0  0  0
    6.1191    3.3298   -2.9243 C   0  0  0  0  0  0  0  0  0  0  0  0
    6.3836    4.2445   -1.7397 C   0  0  0  0  0  0  0  0  0  0  0  0
    5.7558    3.7365   -0.5633 N   0  0  0  0  0  0  0  0  0  0  0  0
    5.9604    4.3712    0.6497 N   0  0  0  0  0  0  0  0  0  0  0  0
    4.9055    4.6719    1.4727 C   0  0  0  0  0  0  0  0  0  0  0  0
    3.4960    4.3504    1.0324 C   0  0  0  0  0  0  0  0  0  0  0  0
    2.7098    3.8325    2.1494 N   0  0  0  0  0  0  0  0  0  0  0  0
    2.5994    2.5487    2.4942 C   0  0  0  0  0  0  0  0  0  0  0  0
    1.6479    2.2040    3.6045 C   0  0  0  0  0  0  0  0  0  0  0  0
    2.3132    1.8596    4.9729 C   0  0  0  0  0  0  0  0  0  0  0  0
    1.3390    1.7883    6.1029 C   0  0  0  0  0  0  0  0  0  0  0  0
    3.5204    2.6773    5.2857 C   0  0  0  0  0  0  0  0  0  0  0  0
    0.8112    1.1114    3.1031 N   0  0  0  0  0  0  0  0  0  0  0  0
   -0.2788    1.4296    2.3368 C   0  0  0  0  0  0  0  0  0  0  0  0
   -1.1822    0.4186    1.6754 C   0  0  0  0  0  0  0  0  0  0  0  0
   -0.4949   -0.0102    0.4026 C   0  0  0  0  0  0  0  0  0  0  0  0
   -1.2998   -1.0075   -0.3335 C   0  0  0  0  0  0  0  0  0  0  0  0
   -2.6517   -0.4955   -0.5618 N   0  0  0  0  0  0  0  0  0  0  0  0
   -3.1976   -0.5350   -1.8161 C   0  0  0  0  0  0  0  0  0  0  0  0
   -4.3214    0.2065   -2.1377 C   0  0  0  0  0  0  0  0  0  0  0  0
   -5.2557    0.7413   -2.5419 C   0  0  0  0  0  0  0  0  0  0  0  0
   -6.3925    1.5020   -2.9072 C   0  0  0  0  0  0  0  0  0  0  0  0
   -6.4853    1.5805   -4.3389 N   0  0  0  0  0  0  0  0  0  0  0  0
   -5.5879    2.4262   -5.0212 C   0  0  0  0  0  0  0  0  0  0  0  0
   -6.9869    0.4791   -5.0644 C   0  0  0  0  0  0  0  0  0  0  0  0
   -7.6294    0.8625   -2.3154 C   0  0  0  0  0  0  0  0  0  0  0  0
   -6.3055    2.8925   -2.3196 C   0  0  0  0  0  0  0  0  0  0  0  0
   -2.6878   -1.2161   -2.6917 O   0  0  0  0  0  0  0  0  0  0  0  0
   -3.3495    0.0333    0.5713 C   0  0  0  0  0  0  0  0  0  0  0  0
   -2.5628    0.9944    1.3448 C   0  0  0  0  0  0  0  0  0  0  0  0
   -0.5141    2.6300    2.1513 O   0  0  0  0  0  0  0  0  0  0  0  0
    1.2484   -0.2768    3.3240 C   0  0  0  0  0  0  0  0  0  0  0  0
    3.1542    1.7024    1.8193 O   0  0  0  0  0  0  0  0  0  0  0  0
    2.8069    5.6398    0.4559 C   0  0  0  0  0  0  0  0  0  0  0  0
    1.6606    5.6294   -0.6035 C   0  0  0  0  0  0  0  0  0  0  0  0
    1.4479    4.3335   -1.2269 C   0  0  0  0  0  0  0  0  0  0  0  0
    0.2630    4.1700   -2.0252 N   0  0  0  0  0  0  0  0  0  0  0  0
   -0.7445    5.1847   -2.0138 C   0  0  0  0  0  0  0  0  0  0  0  0
   -0.6360    6.2445   -0.9774 C   0  0  0  0  0  0  0  0  0  0  0  0
    0.4566    6.1678   -0.0297 O   0  0  0  0  0  0  0  0  0  0  0  0
    5.0820    5.2443    2.5567 O   0  0  0  0  0  0  0  0  0  0  0  0
    7.3479    4.6359    1.0130 C   0  0  0  0  0  0  0  0  0  0  0  0
    8.1269    5.2219   -0.1768 C   0  0  0  0  0  0  0  0  0  0  0  0
    7.8913    4.4497   -1.4600 C   0  0  0  0  0  0  0  0  0  0  0  0
    6.9351    3.3430   -3.8657 O   0  0  0  0  0  0  0  0  0  0  0  0
    1.0427    0.9337   -3.6049 C   0  0  0  0  0  0  0  0  0  0  0  0
   -0.0959    0.6524   -4.3453 C   0  0  0  0  0  0  0  0  0  0  0  0
   -1.1681    1.6032   -4.3354 C   0  0  0  0  0  0  0  0  0  0  0  0
   -1.0183    2.7580   -3.5711 C   0  0  0  0  0  0  0  0  0  0  0  0
    0.1339    3.0159   -2.8157 C   0  0  0  0  0  0  0  0  0  0  0  0
    1.1852    2.0858   -2.8404 C   0  0  0  0  0  0  0  0  0  0  0  0
   -1.4334   -0.6614    2.5006 F   0  0  0  0  0  0  0  0  0  0  0  0
  1  2  1  0  0  0  0
  2  3  1  0  0  0  0
  2  5  1  0  0  0  0
  3  4  1  0  0  0  0
  5  6  4  0  0  0  0
  5 10  4  0  0  0  0
  6  7  4  0  0  0  0
  7  8  4  0  0  0  0
  8  9  4  0  0  0  0
  9 10  4  0  0  0  0
 10 11  1  0  0  0  0
 11 12  4  0  0  0  0
 11 15  4  0  0  0  0
 12 13  1  0  0  0  0
 12 68  4  0  0  0  0
 13 14  1  0  0  0  0
 15 16  1  0  0  0  0
 15 67  4  0  0  0  0
 16 17  1  0  0  0  0
 17 18  1  0  0  0  0
 17 19  1  0  0  0  0
 17 20  1  0  0  0  0
 20 21  1  0  0  0  0
 21 22  1  0  0  0  0
 22 23  1  0  0  0  0
 22 66  2  0  0  0  0
 23 24  1  0  0  0  0
 23 65  1  0  0  0  0
 24 25  1  0  0  0  0
 25 26  1  0  0  0  0
 25 63  1  0  0  0  0
 26 27  1  0  0  0  0
 26 62  2  0  0  0  0
 27 28  1  0  0  0  0
 27 55  1  0  0  0  0
 28 29  1  0  0  0  0
 29 30  1  0  0  0  0
 29 54  2  0  0  0  0
 30 31  1  0  0  0  0
 30 34  1  0  0  0  0
 31 32  1  0  0  0  0
 31 33  1  0  0  0  0
 34 35  1  0  0  0  0
 34 53  1  0  0  0  0
 35 36  1  0  0  0  0
 35 52  2  0  0  0  0
 36 37  1  0  0  0  0
 36 51  1  0  0  0  0
 36 73  1  0  0  0  0
 37 38  1  0  0  0  0
 38 39  1  0  0  0  0
 39 40  1  0  0  0  0
 39 50  1  0  0  0  0
 40 41  1  0  0  0  0
 40 49  2  0  0  0  0
 41 42  1  0  0  0  0
 42 43  1  0  0  0  0
 43 44  1  0  0  0  0
 43 47  1  0  0  0  0
 43 48  1  0  0  0  0
 44 45  1  0  0  0  0
 44 46  1  0  0  0  0
 50 51  1  0  0  0  0
 55 56  1  0  0  0  0
 56 57  1  0  0  0  0
 56 61  1  0  0  0  0
 57 58  1  0  0  0  0
 58 59  1  0  0  0  0
 58 71  1  0  0  0  0
 59 60  1  0  0  0  0
 60 61  1  0  0  0  0
 63 64  1  0  0  0  0
 64 65  1  0  0  0  0
 67 68  4  0  0  0  0
 67 72  4  0  0  0  0
 68 69  4  0  0  0  0
 69 70  4  0  0  0  0
 70 71  4  0  0  0  0
 71 72  4  0  0  0  0
M  END
$$$$
