mol_ETKDG0_329
  PyMOL3.1          3D                             0

 73 79  0  0  0  0  0  0  0  0999 V2000
    2.5423    2.4703    4.4506 C   0  0  0  0  0  0  0  0  0  0  0  0
    2.8494    1.8402    3.1470 C   0  0  0  0  0  0  0  0  0  0  0  0
    3.2873    2.7329    2.1379 O   0  0  0  0  0  0  0  0  0  0  0  0
    2.3060    3.5146    1.5009 C   0  0  0  0  0  0  0  0  0  0  0  0
    3.8817    0.7859    3.2554 C   0  0  0  0  0  0  0  0  0  0  0  0
    5.1264    1.1592    3.5074 N   0  0  0  0  0  0  0  0  0  0  0  0
    6.1142    0.2472    3.6634 C   0  0  0  0  0  0  0  0  0  0  0  0
    5.8629   -1.1290    3.5819 C   0  0  0  0  0  0  0  0  0  0  0  0
    4.5489   -1.5461    3.3261 C   0  0  0  0  0  0  0  0  0  0  0  0
    3.5664   -0.5646    3.1396 C   0  0  0  0  0  0  0  0  0  0  0  0
    2.2353   -0.9941    2.8036 C   0  0  0  0  0  0  0  0  0  0  0  0
    1.3287   -1.4263    3.7143 N   0  0  0  0  0  0  0  0  0  0  0  0
    1.4940   -1.5288    5.2038 C   0  0  0  0  0  0  0  0  0  0  0  0
    1.6565   -2.9096    5.6696 C   0  0  0  0  0  0  0  0  0  0  0  0
    1.6651   -0.9534    1.5047 C   0  0  0  0  0  0  0  0  0  0  0  0
    2.2132   -0.4477    0.2010 C   0  0  0  0  0  0  0  0  0  0  0  0
    3.0719   -1.4695   -0.6555 C   0  0  0  0  0  0  0  0  0  0  0  0
    4.4001   -1.8202   -0.0277 C   0  0  0  0  0  0  0  0  0  0  0  0
    3.4467   -0.7626   -1.9323 C   0  0  0  0  0  0  0  0  0  0  0  0
    2.3152   -2.7450   -0.9546 C   0  0  0  0  0  0  0  0  0  0  0  0
    1.4959   -2.6969   -2.2127 O   0  0  0  0  0  0  0  0  0  0  0  0
    1.4068   -3.7509   -3.1620 C   0  0  0  0  0  0  0  0  0  0  0  0
    0.5388   -3.5522   -4.3906 C   0  0  0  0  0  0  0  0  0  0  0  0
    0.1667   -2.1809   -4.5155 N   0  0  0  0  0  0  0  0  0  0  0  0
   -0.6273   -1.8276   -5.5996 N   0  0  0  0  0  0  0  0  0  0  0  0
   -1.8092   -1.1694   -5.4095 C   0  0  0  0  0  0  0  0  0  0  0  0
   -2.2308   -0.8452   -4.0061 C   0  0  0  0  0  0  0  0  0  0  0  0
   -2.8723    0.4479   -3.9330 N   0  0  0  0  0  0  0  0  0  0  0  0
   -2.2544    1.5537   -3.4853 C   0  0  0  0  0  0  0  0  0  0  0  0
   -3.1137    2.7681   -3.3568 C   0  0  0  0  0  0  0  0  0  0  0  0
   -2.8340    3.8329   -4.4724 C   0  0  0  0  0  0  0  0  0  0  0  0
   -3.8520    4.9270   -4.4846 C   0  0  0  0  0  0  0  0  0  0  0  0
   -2.6581    3.2092   -5.8244 C   0  0  0  0  0  0  0  0  0  0  0  0
   -2.9009    3.2849   -1.9965 N   0  0  0  0  0  0  0  0  0  0  0  0
   -3.5744    2.6908   -0.9547 C   0  0  0  0  0  0  0  0  0  0  0  0
   -3.3809    3.0245    0.5103 C   0  0  0  0  0  0  0  0  0  0  0  0
   -1.9748    2.6214    0.8878 C   0  0  0  0  0  0  0  0  0  0  0  0
   -1.6907    2.9210    2.3101 C   0  0  0  0  0  0  0  0  0  0  0  0
   -2.6725    2.2376    3.1593 N   0  0  0  0  0  0  0  0  0  0  0  0
   -2.2426    1.4481    4.1875 C   0  0  0  0  0  0  0  0  0  0  0  0
   -3.1341    0.7032    4.9442 C   0  0  0  0  0  0  0  0  0  0  0  0
   -3.8017    0.0826    5.6586 C   0  0  0  0  0  0  0  0  0  0  0  0
   -4.7802   -0.6075    6.3929 C   0  0  0  0  0  0  0  0  0  0  0  0
   -6.0360   -0.4024    5.7806 N   0  0  0  0  0  0  0  0  0  0  0  0
   -6.3554   -1.1073    4.6257 C   0  0  0  0  0  0  0  0  0  0  0  0
   -6.9771    0.4957    6.2986 C   0  0  0  0  0  0  0  0  0  0  0  0
   -4.7827   -0.1104    7.8193 C   0  0  0  0  0  0  0  0  0  0  0  0
   -4.5062   -2.1030    6.4593 C   0  0  0  0  0  0  0  0  0  0  0  0
   -1.0364    1.3806    4.4479 O   0  0  0  0  0  0  0  0  0  0  0  0
   -4.0593    2.4447    2.8447 C   0  0  0  0  0  0  0  0  0  0  0  0
   -4.3558    2.2383    1.4171 C   0  0  0  0  0  0  0  0  0  0  0  0
   -4.3851    1.7905   -1.2486 O   0  0  0  0  0  0  0  0  0  0  0  0
   -1.8966    4.3426   -1.7786 C   0  0  0  0  0  0  0  0  0  0  0  0
   -1.0983    1.5125   -3.1024 O   0  0  0  0  0  0  0  0  0  0  0  0
   -3.2276   -1.9477   -3.4628 C   0  0  0  0  0  0  0  0  0  0  0  0
   -3.6877   -1.7287   -1.9937 C   0  0  0  0  0  0  0  0  0  0  0  0
   -2.5999   -2.2154   -1.1123 C   0  0  0  0  0  0  0  0  0  0  0  0
   -2.9513   -2.1214    0.2845 N   0  0  0  0  0  0  0  0  0  0  0  0
   -4.2294   -2.7639    0.6419 C   0  0  0  0  0  0  0  0  0  0  0  0
   -5.3302   -2.3552   -0.3535 C   0  0  0  0  0  0  0  0  0  0  0  0
   -4.8836   -2.5182   -1.7535 O   0  0  0  0  0  0  0  0  0  0  0  0
   -2.5506   -0.8728   -6.3610 O   0  0  0  0  0  0  0  0  0  0  0  0
   -0.0819   -2.1496   -6.9172 C   0  0  0  0  0  0  0  0  0  0  0  0
    0.3797   -3.6243   -6.9319 C   0  0  0  0  0  0  0  0  0  0  0  0
    1.2384   -3.9855   -5.7133 C   0  0  0  0  0  0  0  0  0  0  0  0
    1.9906   -4.8467   -3.0575 O   0  0  0  0  0  0  0  0  0  0  0  0
    0.3588   -1.4247    1.7078 C   0  0  0  0  0  0  0  0  0  0  0  0
    0.1932   -1.7017    3.0617 C   0  0  0  0  0  0  0  0  0  0  0  0
   -1.0798   -2.1776    3.5249 C   0  0  0  0  0  0  0  0  0  0  0  0
   -2.1038   -2.3037    2.5730 C   0  0  0  0  0  0  0  0  0  0  0  0
   -1.9099   -2.0041    1.2188 C   0  0  0  0  0  0  0  0  0  0  0  0
   -0.6625   -1.5514    0.7775 C   0  0  0  0  0  0  0  0  0  0  0  0
   -3.6173    4.3741    0.7413 F   0  0  0  0  0  0  0  0  0  0  0  0
  1  2  1  0  0  0  0
  2  3  1  0  0  0  0
  2  5  1  0  0  0  0
  3  4  1  0  0  0  0
  5  6  4  0  0  0  0
  5 10  4  0  0  0  0
  6  7  4  0  0  0  0
  7  8  4  0  0  0  0
  8  9  4  0  0  0  0
  9 10  4  0  0  0  0
 10 11  1  0  0  0  0
 11 12  4  0  0  0  0
 11 15  4  0  0  0  0
 12 13  1  0  0  0  0
 12 68  4  0  0  0  0
 13 14  1  0  0  0  0
 15 16  1  0  0  0  0
 15 67  4  0  0  0  0
 16 17  1  0  0  0  0
 17 18  1  0  0  0  0
 17 19  1  0  0  0  0
 17 20  1  0  0  0  0
 20 21  1  0  0  0  0
 21 22  1  0  0  0  0
 22 23  1  0  0  0  0
 22 66  2  0  0  0  0
 23 24  1  0  0  0  0
 23 65  1  0  0  0  0
 24 25  1  0  0  0  0
 25 26  1  0  0  0  0
 25 63  1  0  0  0  0
 26 27  1  0  0  0  0
 26 62  2  0  0  0  0
 27 28  1  0  0  0  0
 27 55  1  0  0  0  0
 28 29  1  0  0  0  0
 29 30  1  0  0  0  0
 29 54  2  0  0  0  0
 30 31  1  0  0  0  0
 30 34  1  0  0  0  0
 31 32  1  0  0  0  0
 31 33  1  0  0  0  0
 34 35  1  0  0  0  0
 34 53  1  0  0  0  0
 35 36  1  0  0  0  0
 35 52  2  0  0  0  0
 36 37  1  0  0  0  0
 36 51  1  0  0  0  0
 36 73  1  0  0  0  0
 37 38  1  0  0  0  0
 38 39  1  0  0  0  0
 39 40  1  0  0  0  0
 39 50  1  0  0  0  0
 40 41  1  0  0  0  0
 40 49  2  0  0  0  0
 41 42  1  0  0  0  0
 42 43  1  0  0  0  0
 43 44  1  0  0  0  0
 43 47  1  0  0  0  0
 43 48  1  0  0  0  0
 44 45  1  0  0  0  0
 44 46  1  0  0  0  0
 50 51  1  0  0  0  0
 55 56  1  0  0  0  0
 56 57  1  0  0  0  0
 56 61  1  0  0  0  0
 57 58  1  0  0  0  0
 58 59  1  0  0  0  0
 58 71  1  0  0  0  0
 59 60  1  0  0  0  0
 60 61  1  0  0  0  0
 63 64  1  0  0  0  0
 64 65  1  0  0  0  0
 67 68  4  0  0  0  0
 67 72  4  0  0  0  0
 68 69  4  0  0  0  0
 69 70  4  0  0  0  0
 70 71  4  0  0  0  0
 71 72  4  0  0  0  0
M  END
$$$$
