mol_ETKDG4_240
  PyMOL3.1          3D                             0

 73 79  0  0  0  0  0  0  0  0999 V2000
    1.6867    4.1416   -6.7350 C   0  0  0  0  0  0  0  0  0  0  0  0
    0.4055    4.3759   -6.0473 C   0  0  0  0  0  0  0  0  0  0  0  0
   -0.7490    4.3559   -6.8500 O   0  0  0  0  0  0  0  0  0  0  0  0
   -1.1996    3.1011   -7.3032 C   0  0  0  0  0  0  0  0  0  0  0  0
    0.3713    5.6491   -5.3010 C   0  0  0  0  0  0  0  0  0  0  0  0
    0.3368    6.7779   -5.9883 N   0  0  0  0  0  0  0  0  0  0  0  0
    0.3489    7.9735   -5.3688 C   0  0  0  0  0  0  0  0  0  0  0  0
    0.4105    8.0770   -3.9806 C   0  0  0  0  0  0  0  0  0  0  0  0
    0.4560    6.8984   -3.2370 C   0  0  0  0  0  0  0  0  0  0  0  0
    0.4047    5.6767   -3.9212 C   0  0  0  0  0  0  0  0  0  0  0  0
    0.4202    4.4776   -3.1356 C   0  0  0  0  0  0  0  0  0  0  0  0
    1.5697    3.9142   -2.7072 N   0  0  0  0  0  0  0  0  0  0  0  0
    2.9836    4.3405   -3.0008 C   0  0  0  0  0  0  0  0  0  0  0  0
    3.6450    4.9805   -1.8599 C   0  0  0  0  0  0  0  0  0  0  0  0
   -0.7118    3.7004   -2.7496 C   0  0  0  0  0  0  0  0  0  0  0  0
   -2.1797    3.7761   -3.0984 C   0  0  0  0  0  0  0  0  0  0  0  0
   -3.0732    4.7542   -2.2290 C   0  0  0  0  0  0  0  0  0  0  0  0
   -4.5066    4.6176   -2.7180 C   0  0  0  0  0  0  0  0  0  0  0  0
   -2.7270    6.1738   -2.4927 C   0  0  0  0  0  0  0  0  0  0  0  0
   -3.0074    4.4754   -0.7197 C   0  0  0  0  0  0  0  0  0  0  0  0
   -3.9601    3.4122   -0.2102 O   0  0  0  0  0  0  0  0  0  0  0  0
   -4.8303    3.5658    0.9146 C   0  0  0  0  0  0  0  0  0  0  0  0
   -5.7143    2.3941    1.3267 C   0  0  0  0  0  0  0  0  0  0  0  0
   -5.9750    1.5546    0.1937 N   0  0  0  0  0  0  0  0  0  0  0  0
   -6.8116    0.4597    0.3922 N   0  0  0  0  0  0  0  0  0  0  0  0
   -6.4034   -0.8070    0.1065 C   0  0  0  0  0  0  0  0  0  0  0  0
   -5.0187   -1.0022   -0.4095 C   0  0  0  0  0  0  0  0  0  0  0  0
   -4.9566   -1.9914   -1.4674 N   0  0  0  0  0  0  0  0  0  0  0  0
   -4.8851   -1.6669   -2.7664 C   0  0  0  0  0  0  0  0  0  0  0  0
   -4.6297   -2.7817   -3.7184 C   0  0  0  0  0  0  0  0  0  0  0  0
   -5.8726   -3.2774   -4.5131 C   0  0  0  0  0  0  0  0  0  0  0  0
   -5.6230   -4.5756   -5.2039 C   0  0  0  0  0  0  0  0  0  0  0  0
   -7.1353   -3.2634   -3.7167 C   0  0  0  0  0  0  0  0  0  0  0  0
   -3.5587   -2.3210   -4.6068 N   0  0  0  0  0  0  0  0  0  0  0  0
   -2.2622   -2.4549   -4.1814 C   0  0  0  0  0  0  0  0  0  0  0  0
   -1.0490   -1.9733   -4.9362 C   0  0  0  0  0  0  0  0  0  0  0  0
   -0.8537   -0.5208   -4.5794 C   0  0  0  0  0  0  0  0  0  0  0  0
    0.3190    0.0463   -5.3059 C   0  0  0  0  0  0  0  0  0  0  0  0
    1.5029   -0.7528   -4.9865 N   0  0  0  0  0  0  0  0  0  0  0  0
    2.6135   -0.1333   -4.4946 C   0  0  0  0  0  0  0  0  0  0  0  0
    3.4548   -0.7212   -3.5599 C   0  0  0  0  0  0  0  0  0  0  0  0
    4.2288   -1.0936   -2.7760 C   0  0  0  0  0  0  0  0  0  0  0  0
    5.0745   -1.6922   -1.8270 C   0  0  0  0  0  0  0  0  0  0  0  0
    6.0128   -2.5403   -2.4652 N   0  0  0  0  0  0  0  0  0  0  0  0
    7.0346   -1.9667   -3.2495 C   0  0  0  0  0  0  0  0  0  0  0  0
    6.0211   -3.9320   -2.3061 C   0  0  0  0  0  0  0  0  0  0  0  0
    5.8236   -0.6371   -1.0278 C   0  0  0  0  0  0  0  0  0  0  0  0
    4.2270   -2.4461   -0.8246 C   0  0  0  0  0  0  0  0  0  0  0  0
    2.8543    1.0290   -4.8235 O   0  0  0  0  0  0  0  0  0  0  0  0
    1.4036   -2.1731   -5.2088 C   0  0  0  0  0  0  0  0  0  0  0  0
    0.2106   -2.7587   -4.5610 C   0  0  0  0  0  0  0  0  0  0  0  0
   -2.0742   -2.9919   -3.0738 O   0  0  0  0  0  0  0  0  0  0  0  0
   -3.9193   -1.6174   -5.8484 C   0  0  0  0  0  0  0  0  0  0  0  0
   -4.8998   -0.4960   -3.1001 O   0  0  0  0  0  0  0  0  0  0  0  0
   -4.0717   -1.4400    0.7656 C   0  0  0  0  0  0  0  0  0  0  0  0
   -2.5966   -1.6296    0.3472 C   0  0  0  0  0  0  0  0  0  0  0  0
   -1.9792   -0.2872    0.2598 C   0  0  0  0  0  0  0  0  0  0  0  0
   -0.5743   -0.3744   -0.0441 N   0  0  0  0  0  0  0  0  0  0  0  0
    0.1969   -1.2551    0.8476 C   0  0  0  0  0  0  0  0  0  0  0  0
   -0.5146   -2.5977    1.0232 C   0  0  0  0  0  0  0  0  0  0  0  0
   -1.9293   -2.4068    1.3691 O   0  0  0  0  0  0  0  0  0  0  0  0
   -7.1284   -1.7947    0.3067 O   0  0  0  0  0  0  0  0  0  0  0  0
   -8.1574    0.7675    0.8650 C   0  0  0  0  0  0  0  0  0  0  0  0
   -8.0326    1.6579    2.1186 C   0  0  0  0  0  0  0  0  0  0  0  0
   -7.0987    2.8517    1.8951 C   0  0  0  0  0  0  0  0  0  0  0  0
   -4.8980    4.6100    1.5884 O   0  0  0  0  0  0  0  0  0  0  0  0
   -0.1420    2.6735   -1.9991 C   0  0  0  0  0  0  0  0  0  0  0  0
    1.2455    2.8357   -2.0046 C   0  0  0  0  0  0  0  0  0  0  0  0
    2.0628    1.8844   -1.3250 C   0  0  0  0  0  0  0  0  0  0  0  0
    1.4190    0.8286   -0.6985 C   0  0  0  0  0  0  0  0  0  0  0  0
    0.0325    0.6934   -0.7014 C   0  0  0  0  0  0  0  0  0  0  0  0
   -0.7746    1.6172   -1.3757 C   0  0  0  0  0  0  0  0  0  0  0  0
   -1.1993   -2.1483   -6.2925 F   0  0  0  0  0  0  0  0  0  0  0  0
  1  2  1  0  0  0  0
  2  3  1  0  0  0  0
  2  5  1  0  0  0  0
  3  4  1  0  0  0  0
  5  6  4  0  0  0  0
  5 10  4  0  0  0  0
  6  7  4  0  0  0  0
  7  8  4  0  0  0  0
  8  9  4  0  0  0  0
  9 10  4  0  0  0  0
 10 11  1  0  0  0  0
 11 12  4  0  0  0  0
 11 15  4  0  0  0  0
 12 13  1  0  0  0  0
 12 68  4  0  0  0  0
 13 14  1  0  0  0  0
 15 16  1  0  0  0  0
 15 67  4  0  0  0  0
 16 17  1  0  0  0  0
 17 18  1  0  0  0  0
 17 19  1  0  0  0  0
 17 20  1  0  0  0  0
 20 21  1  0  0  0  0
 21 22  1  0  0  0  0
 22 23  1  0  0  0  0
 22 66  2  0  0  0  0
 23 24  1  0  0  0  0
 23 65  1  0  0  0  0
 24 25  1  0  0  0  0
 25 26  1  0  0  0  0
 25 63  1  0  0  0  0
 26 27  1  0  0  0  0
 26 62  2  0  0  0  0
 27 28  1  0  0  0  0
 27 55  1  0  0  0  0
 28 29  1  0  0  0  0
 29 30  1  0  0  0  0
 29 54  2  0  0  0  0
 30 31  1  0  0  0  0
 30 34  1  0  0  0  0
 31 32  1  0  0  0  0
 31 33  1  0  0  0  0
 34 35  1  0  0  0  0
 34 53  1  0  0  0  0
 35 36  1  0  0  0  0
 35 52  2  0  0  0  0
 36 37  1  0  0  0  0
 36 51  1  0  0  0  0
 36 73  1  0  0  0  0
 37 38  1  0  0  0  0
 38 39  1  0  0  0  0
 39 40  1  0  0  0  0
 39 50  1  0  0  0  0
 40 41  1  0  0  0  0
 40 49  2  0  0  0  0
 41 42  1  0  0  0  0
 42 43  1  0  0  0  0
 43 44  1  0  0  0  0
 43 47  1  0  0  0  0
 43 48  1  0  0  0  0
 44 45  1  0  0  0  0
 44 46  1  0  0  0  0
 50 51  1  0  0  0  0
 55 56  1  0  0  0  0
 56 57  1  0  0  0  0
 56 61  1  0  0  0  0
 57 58  1  0  0  0  0
 58 59  1  0  0  0  0
 58 71  1  0  0  0  0
 59 60  1  0  0  0  0
 60 61  1  0  0  0  0
 63 64  1  0  0  0  0
 64 65  1  0  0  0  0
 67 68  4  0  0  0  0
 67 72  4  0  0  0  0
 68 69  4  0  0  0  0
 69 70  4  0  0  0  0
 70 71  4  0  0  0  0
 71 72  4  0  0  0  0
M  END
$$$$
