mol_ETKDG4_241
  PyMOL3.1          3D                             0

 73 79  0  0  0  0  0  0  0  0999 V2000
   -4.4626   -3.5068   -4.4619 C   0  0  0  0  0  0  0  0  0  0  0  0
   -5.3829   -3.1798   -3.3624 C   0  0  0  0  0  0  0  0  0  0  0  0
   -6.6223   -2.6430   -3.7082 O   0  0  0  0  0  0  0  0  0  0  0  0
   -6.6344   -1.3534   -4.2928 C   0  0  0  0  0  0  0  0  0  0  0  0
   -5.6334   -4.3094   -2.4570 C   0  0  0  0  0  0  0  0  0  0  0  0
   -6.3177   -5.3419   -2.9257 N   0  0  0  0  0  0  0  0  0  0  0  0
   -6.5369   -6.4373   -2.1627 C   0  0  0  0  0  0  0  0  0  0  0  0
   -6.0404   -6.5339   -0.8572 C   0  0  0  0  0  0  0  0  0  0  0  0
   -5.3054   -5.4485   -0.3511 C   0  0  0  0  0  0  0  0  0  0  0  0
   -5.1313   -4.3194   -1.1648 C   0  0  0  0  0  0  0  0  0  0  0  0
   -4.4207   -3.1784   -0.6333 C   0  0  0  0  0  0  0  0  0  0  0  0
   -3.0706   -3.0841   -0.5993 N   0  0  0  0  0  0  0  0  0  0  0  0
   -2.0721   -4.0903   -1.0922 C   0  0  0  0  0  0  0  0  0  0  0  0
   -1.4227   -4.8158    0.0079 C   0  0  0  0  0  0  0  0  0  0  0  0
   -5.0160   -1.9735   -0.1791 C   0  0  0  0  0  0  0  0  0  0  0  0
   -6.4551   -1.5307   -0.1734 C   0  0  0  0  0  0  0  0  0  0  0  0
   -7.2971   -1.8622    1.1206 C   0  0  0  0  0  0  0  0  0  0  0  0
   -8.7379   -1.4457    0.8448 C   0  0  0  0  0  0  0  0  0  0  0  0
   -7.3819   -3.3160    1.4033 C   0  0  0  0  0  0  0  0  0  0  0  0
   -6.7534   -1.1452    2.3218 C   0  0  0  0  0  0  0  0  0  0  0  0
   -7.1867    0.2821    2.4633 O   0  0  0  0  0  0  0  0  0  0  0  0
   -7.6034    0.8727    3.6852 C   0  0  0  0  0  0  0  0  0  0  0  0
   -8.0009    2.3266    3.6868 C   0  0  0  0  0  0  0  0  0  0  0  0
   -8.0542    2.8199    2.3444 N   0  0  0  0  0  0  0  0  0  0  0  0
   -8.4342    4.1433    2.1824 N   0  0  0  0  0  0  0  0  0  0  0  0
   -7.6508    5.0166    1.4883 C   0  0  0  0  0  0  0  0  0  0  0  0
   -6.3703    4.5266    0.8928 C   0  0  0  0  0  0  0  0  0  0  0  0
   -6.1162    5.1253   -0.3966 N   0  0  0  0  0  0  0  0  0  0  0  0
   -6.3683    4.4865   -1.5440 C   0  0  0  0  0  0  0  0  0  0  0  0
   -5.8964    5.1587   -2.7877 C   0  0  0  0  0  0  0  0  0  0  0  0
   -6.9917    5.8857   -3.6248 C   0  0  0  0  0  0  0  0  0  0  0  0
   -6.4008    6.7809   -4.6669 C   0  0  0  0  0  0  0  0  0  0  0  0
   -8.0320    6.5607   -2.7997 C   0  0  0  0  0  0  0  0  0  0  0  0
   -5.2105    4.1417   -3.5677 N   0  0  0  0  0  0  0  0  0  0  0  0
   -3.9066    3.8762   -3.2734 C   0  0  0  0  0  0  0  0  0  0  0  0
   -3.0513    2.8683   -3.9733 C   0  0  0  0  0  0  0  0  0  0  0  0
   -2.8087    1.7100   -3.0078 C   0  0  0  0  0  0  0  0  0  0  0  0
   -1.9275    0.6923   -3.6203 C   0  0  0  0  0  0  0  0  0  0  0  0
   -0.7447    1.3519   -4.2019 N   0  0  0  0  0  0  0  0  0  0  0  0
    0.5336    1.0243   -3.9543 C   0  0  0  0  0  0  0  0  0  0  0  0
    0.9932    0.1098   -3.0007 C   0  0  0  0  0  0  0  0  0  0  0  0
    1.7979   -0.4857   -2.4107 C   0  0  0  0  0  0  0  0  0  0  0  0
    2.7533   -1.1855   -1.6837 C   0  0  0  0  0  0  0  0  0  0  0  0
    4.0063   -1.1542   -2.3814 N   0  0  0  0  0  0  0  0  0  0  0  0
    4.0275   -1.2490   -3.7930 C   0  0  0  0  0  0  0  0  0  0  0  0
    5.2482   -1.0883   -1.7476 C   0  0  0  0  0  0  0  0  0  0  0  0
    2.8883   -0.5282   -0.3276 C   0  0  0  0  0  0  0  0  0  0  0  0
    2.3215   -2.6232   -1.4675 C   0  0  0  0  0  0  0  0  0  0  0  0
    1.3921    1.6194   -4.6159 O   0  0  0  0  0  0  0  0  0  0  0  0
   -0.9584    2.4550   -5.1003 C   0  0  0  0  0  0  0  0  0  0  0  0
   -1.7649    3.4980   -4.4387 C   0  0  0  0  0  0  0  0  0  0  0  0
   -3.3785    4.5254   -2.3489 O   0  0  0  0  0  0  0  0  0  0  0  0
   -5.9819    3.3593   -4.5427 C   0  0  0  0  0  0  0  0  0  0  0  0
   -6.8469    3.3660   -1.5333 O   0  0  0  0  0  0  0  0  0  0  0  0
   -5.1532    4.8033    1.8506 C   0  0  0  0  0  0  0  0  0  0  0  0
   -3.8154    4.1843    1.3541 C   0  0  0  0  0  0  0  0  0  0  0  0
   -3.8660    2.7273    1.6487 C   0  0  0  0  0  0  0  0  0  0  0  0
   -2.6332    2.0650    1.3082 N   0  0  0  0  0  0  0  0  0  0  0  0
   -1.4209    2.6779    1.8500 C   0  0  0  0  0  0  0  0  0  0  0  0
   -1.4469    4.2046    1.6823 C   0  0  0  0  0  0  0  0  0  0  0  0
   -2.7300    4.7853    2.1008 O   0  0  0  0  0  0  0  0  0  0  0  0
   -7.9558    6.2164    1.3735 O   0  0  0  0  0  0  0  0  0  0  0  0
   -9.7445    4.5005    2.7285 C   0  0  0  0  0  0  0  0  0  0  0  0
   -9.8364    4.0132    4.1912 C   0  0  0  0  0  0  0  0  0  0  0  0
   -9.3928    2.5601    4.3487 C   0  0  0  0  0  0  0  0  0  0  0  0
   -7.6716    0.2778    4.7859 O   0  0  0  0  0  0  0  0  0  0  0  0
   -3.9147   -1.1761    0.1725 C   0  0  0  0  0  0  0  0  0  0  0  0
   -2.7503   -1.8820   -0.1029 C   0  0  0  0  0  0  0  0  0  0  0  0
   -1.4782   -1.2601    0.1148 C   0  0  0  0  0  0  0  0  0  0  0  0
   -1.4810    0.0521    0.5846 C   0  0  0  0  0  0  0  0  0  0  0  0
   -2.6617    0.7459    0.8557 C   0  0  0  0  0  0  0  0  0  0  0  0
   -3.9021    0.1264    0.6459 C   0  0  0  0  0  0  0  0  0  0  0  0
   -3.6034    2.3702   -5.1115 F   0  0  0  0  0  0  0  0  0  0  0  0
  1  2  1  0  0  0  0
  2  3  1  0  0  0  0
  2  5  1  0  0  0  0
  3  4  1  0  0  0  0
  5  6  4  0  0  0  0
  5 10  4  0  0  0  0
  6  7  4  0  0  0  0
  7  8  4  0  0  0  0
  8  9  4  0  0  0  0
  9 10  4  0  0  0  0
 10 11  1  0  0  0  0
 11 12  4  0  0  0  0
 11 15  4  0  0  0  0
 12 13  1  0  0  0  0
 12 68  4  0  0  0  0
 13 14  1  0  0  0  0
 15 16  1  0  0  0  0
 15 67  4  0  0  0  0
 16 17  1  0  0  0  0
 17 18  1  0  0  0  0
 17 19  1  0  0  0  0
 17 20  1  0  0  0  0
 20 21  1  0  0  0  0
 21 22  1  0  0  0  0
 22 23  1  0  0  0  0
 22 66  2  0  0  0  0
 23 24  1  0  0  0  0
 23 65  1  0  0  0  0
 24 25  1  0  0  0  0
 25 26  1  0  0  0  0
 25 63  1  0  0  0  0
 26 27  1  0  0  0  0
 26 62  2  0  0  0  0
 27 28  1  0  0  0  0
 27 55  1  0  0  0  0
 28 29  1  0  0  0  0
 29 30  1  0  0  0  0
 29 54  2  0  0  0  0
 30 31  1  0  0  0  0
 30 34  1  0  0  0  0
 31 32  1  0  0  0  0
 31 33  1  0  0  0  0
 34 35  1  0  0  0  0
 34 53  1  0  0  0  0
 35 36  1  0  0  0  0
 35 52  2  0  0  0  0
 36 37  1  0  0  0  0
 36 51  1  0  0  0  0
 36 73  1  0  0  0  0
 37 38  1  0  0  0  0
 38 39  1  0  0  0  0
 39 40  1  0  0  0  0
 39 50  1  0  0  0  0
 40 41  1  0  0  0  0
 40 49  2  0  0  0  0
 41 42  1  0  0  0  0
 42 43  1  0  0  0  0
 43 44  1  0  0  0  0
 43 47  1  0  0  0  0
 43 48  1  0  0  0  0
 44 45  1  0  0  0  0
 44 46  1  0  0  0  0
 50 51  1  0  0  0  0
 55 56  1  0  0  0  0
 56 57  1  0  0  0  0
 56 61  1  0  0  0  0
 57 58  1  0  0  0  0
 58 59  1  0  0  0  0
 58 71  1  0  0  0  0
 59 60  1  0  0  0  0
 60 61  1  0  0  0  0
 63 64  1  0  0  0  0
 64 65  1  0  0  0  0
 67 68  4  0  0  0  0
 67 72  4  0  0  0  0
 68 69  4  0  0  0  0
 69 70  4  0  0  0  0
 70 71  4  0  0  0  0
 71 72  4  0  0  0  0
M  END
$$$$
