mol_ETKDG0_341
  PyMOL3.1          3D                             0

 73 79  0  0  0  0  0  0  0  0999 V2000
    5.6930    3.8802    0.1030 C   0  0  0  0  0  0  0  0  0  0  0  0
    4.9560    2.8484   -0.6342 C   0  0  0  0  0  0  0  0  0  0  0  0
    4.0947    3.2829   -1.6459 O   0  0  0  0  0  0  0  0  0  0  0  0
    2.9248    3.9502   -1.2619 C   0  0  0  0  0  0  0  0  0  0  0  0
    5.8355    1.8365   -1.2460 C   0  0  0  0  0  0  0  0  0  0  0  0
    6.5908    2.1952   -2.2737 N   0  0  0  0  0  0  0  0  0  0  0  0
    7.4486    1.3287   -2.8451 C   0  0  0  0  0  0  0  0  0  0  0  0
    7.5892    0.0242   -2.3750 C   0  0  0  0  0  0  0  0  0  0  0  0
    6.8098   -0.3662   -1.2826 C   0  0  0  0  0  0  0  0  0  0  0  0
    5.9060    0.5562   -0.7432 C   0  0  0  0  0  0  0  0  0  0  0  0
    5.0620    0.1217    0.3355 C   0  0  0  0  0  0  0  0  0  0  0  0
    5.4139    0.1751    1.6346 N   0  0  0  0  0  0  0  0  0  0  0  0
    6.6868    0.7209    2.2045 C   0  0  0  0  0  0  0  0  0  0  0  0
    7.5818   -0.2970    2.7160 C   0  0  0  0  0  0  0  0  0  0  0  0
    3.7257   -0.3278    0.2017 C   0  0  0  0  0  0  0  0  0  0  0  0
    2.8425   -0.4268   -0.9956 C   0  0  0  0  0  0  0  0  0  0  0  0
    2.8987   -1.7683   -1.8161 C   0  0  0  0  0  0  0  0  0  0  0  0
    4.1044   -1.8305   -2.7379 C   0  0  0  0  0  0  0  0  0  0  0  0
    1.7276   -1.7597   -2.7393 C   0  0  0  0  0  0  0  0  0  0  0  0
    2.8799   -2.9951   -0.9379 C   0  0  0  0  0  0  0  0  0  0  0  0
    1.5032   -3.5698   -0.7371 O   0  0  0  0  0  0  0  0  0  0  0  0
    1.1631   -4.9267   -0.8933 C   0  0  0  0  0  0  0  0  0  0  0  0
   -0.2849   -5.3383   -0.7358 C   0  0  0  0  0  0  0  0  0  0  0  0
   -1.1346   -4.1939   -0.8488 N   0  0  0  0  0  0  0  0  0  0  0  0
   -2.5023   -4.4098   -0.7840 N   0  0  0  0  0  0  0  0  0  0  0  0
   -3.2833   -3.7297    0.1089 C   0  0  0  0  0  0  0  0  0  0  0  0
   -2.6381   -2.7245    1.0131 C   0  0  0  0  0  0  0  0  0  0  0  0
   -3.4671   -1.5551    1.2038 N   0  0  0  0  0  0  0  0  0  0  0  0
   -3.2086   -0.3799    0.6172 C   0  0  0  0  0  0  0  0  0  0  0  0
   -4.0272    0.7889    1.0420 C   0  0  0  0  0  0  0  0  0  0  0  0
   -5.1844    1.1516    0.0691 C   0  0  0  0  0  0  0  0  0  0  0  0
   -6.2220    2.0118    0.7098 C   0  0  0  0  0  0  0  0  0  0  0  0
   -5.7479   -0.0099   -0.6699 C   0  0  0  0  0  0  0  0  0  0  0  0
   -3.0787    1.8878    1.2339 N   0  0  0  0  0  0  0  0  0  0  0  0
   -2.3780    1.9438    2.4137 C   0  0  0  0  0  0  0  0  0  0  0  0
   -1.2704    2.9219    2.7125 C   0  0  0  0  0  0  0  0  0  0  0  0
   -0.0534    2.4318    1.9598 C   0  0  0  0  0  0  0  0  0  0  0  0
    1.1228    3.3176    2.1913 C   0  0  0  0  0  0  0  0  0  0  0  0
    1.3819    3.3841    3.6302 N   0  0  0  0  0  0  0  0  0  0  0  0
    2.6124    3.0449    4.1329 C   0  0  0  0  0  0  0  0  0  0  0  0
    2.7842    2.5695    5.4227 C   0  0  0  0  0  0  0  0  0  0  0  0
    3.0554    2.1788    6.4800 C   0  0  0  0  0  0  0  0  0  0  0  0
    3.2088    1.7145    7.8046 C   0  0  0  0  0  0  0  0  0  0  0  0
    3.7439    2.7581    8.6189 N   0  0  0  0  0  0  0  0  0  0  0  0
    5.1312    2.9184    8.7371 C   0  0  0  0  0  0  0  0  0  0  0  0
    2.9266    3.8507    8.9920 C   0  0  0  0  0  0  0  0  0  0  0  0
    4.1172    0.4975    7.8188 C   0  0  0  0  0  0  0  0  0  0  0  0
    1.8852    1.2471    8.3587 C   0  0  0  0  0  0  0  0  0  0  0  0
    3.6017    3.0984    3.4090 O   0  0  0  0  0  0  0  0  0  0  0  0
    0.2814    3.7940    4.4533 C   0  0  0  0  0  0  0  0  0  0  0  0
   -0.9311    2.9742    4.2103 C   0  0  0  0  0  0  0  0  0  0  0  0
   -2.6569    1.0922    3.2775 O   0  0  0  0  0  0  0  0  0  0  0  0
   -2.8124    2.8069    0.1146 C   0  0  0  0  0  0  0  0  0  0  0  0
   -2.2582   -0.2786   -0.1443 O   0  0  0  0  0  0  0  0  0  0  0  0
   -2.3377   -3.3688    2.4175 C   0  0  0  0  0  0  0  0  0  0  0  0
   -1.5571   -2.4318    3.3721 C   0  0  0  0  0  0  0  0  0  0  0  0
   -0.1309   -2.4564    2.9532 C   0  0  0  0  0  0  0  0  0  0  0  0
    0.7043   -1.6920    3.8406 N   0  0  0  0  0  0  0  0  0  0  0  0
    0.5492   -2.0235    5.2664 C   0  0  0  0  0  0  0  0  0  0  0  0
   -0.9275   -2.0988    5.6539 C   0  0  0  0  0  0  0  0  0  0  0  0
   -1.6851   -2.9394    4.7191 O   0  0  0  0  0  0  0  0  0  0  0  0
   -4.4980   -3.9522    0.2170 O   0  0  0  0  0  0  0  0  0  0  0  0
   -3.0428   -5.3391   -1.7725 C   0  0  0  0  0  0  0  0  0  0  0  0
   -2.2157   -6.6384   -1.7502 C   0  0  0  0  0  0  0  0  0  0  0  0
   -0.7172   -6.3724   -1.8136 C   0  0  0  0  0  0  0  0  0  0  0  0
    1.9829   -5.8374   -1.1507 O   0  0  0  0  0  0  0  0  0  0  0  0
    3.3311   -0.6100    1.5158 C   0  0  0  0  0  0  0  0  0  0  0  0
    4.3853   -0.2869    2.3612 C   0  0  0  0  0  0  0  0  0  0  0  0
    4.2208   -0.4584    3.7645 C   0  0  0  0  0  0  0  0  0  0  0  0
    2.9804   -0.9279    4.2094 C   0  0  0  0  0  0  0  0  0  0  0  0
    1.9334   -1.2317    3.3493 C   0  0  0  0  0  0  0  0  0  0  0  0
    2.0965   -1.0639    1.9692 C   0  0  0  0  0  0  0  0  0  0  0  0
   -1.6354    4.2035    2.3514 F   0  0  0  0  0  0  0  0  0  0  0  0
  1  2  1  0  0  0  0
  2  3  1  0  0  0  0
  2  5  1  0  0  0  0
  3  4  1  0  0  0  0
  5  6  4  0  0  0  0
  5 10  4  0  0  0  0
  6  7  4  0  0  0  0
  7  8  4  0  0  0  0
  8  9  4  0  0  0  0
  9 10  4  0  0  0  0
 10 11  1  0  0  0  0
 11 12  4  0  0  0  0
 11 15  4  0  0  0  0
 12 13  1  0  0  0  0
 12 68  4  0  0  0  0
 13 14  1  0  0  0  0
 15 16  1  0  0  0  0
 15 67  4  0  0  0  0
 16 17  1  0  0  0  0
 17 18  1  0  0  0  0
 17 19  1  0  0  0  0
 17 20  1  0  0  0  0
 20 21  1  0  0  0  0
 21 22  1  0  0  0  0
 22 23  1  0  0  0  0
 22 66  2  0  0  0  0
 23 24  1  0  0  0  0
 23 65  1  0  0  0  0
 24 25  1  0  0  0  0
 25 26  1  0  0  0  0
 25 63  1  0  0  0  0
 26 27  1  0  0  0  0
 26 62  2  0  0  0  0
 27 28  1  0  0  0  0
 27 55  1  0  0  0  0
 28 29  1  0  0  0  0
 29 30  1  0  0  0  0
 29 54  2  0  0  0  0
 30 31  1  0  0  0  0
 30 34  1  0  0  0  0
 31 32  1  0  0  0  0
 31 33  1  0  0  0  0
 34 35  1  0  0  0  0
 34 53  1  0  0  0  0
 35 36  1  0  0  0  0
 35 52  2  0  0  0  0
 36 37  1  0  0  0  0
 36 51  1  0  0  0  0
 36 73  1  0  0  0  0
 37 38  1  0  0  0  0
 38 39  1  0  0  0  0
 39 40  1  0  0  0  0
 39 50  1  0  0  0  0
 40 41  1  0  0  0  0
 40 49  2  0  0  0  0
 41 42  1  0  0  0  0
 42 43  1  0  0  0  0
 43 44  1  0  0  0  0
 43 47  1  0  0  0  0
 43 48  1  0  0  0  0
 44 45  1  0  0  0  0
 44 46  1  0  0  0  0
 50 51  1  0  0  0  0
 55 56  1  0  0  0  0
 56 57  1  0  0  0  0
 56 61  1  0  0  0  0
 57 58  1  0  0  0  0
 58 59  1  0  0  0  0
 58 71  1  0  0  0  0
 59 60  1  0  0  0  0
 60 61  1  0  0  0  0
 63 64  1  0  0  0  0
 64 65  1  0  0  0  0
 67 68  4  0  0  0  0
 67 72  4  0  0  0  0
 68 69  4  0  0  0  0
 69 70  4  0  0  0  0
 70 71  4  0  0  0  0
 71 72  4  0  0  0  0
M  END
$$$$
