mol_ETKDG4_236
  PyMOL3.1          3D                             0

 73 79  0  0  0  0  0  0  0  0999 V2000
   -1.2012   -1.3407   -6.9563 C   0  0  0  0  0  0  0  0  0  0  0  0
   -1.4924   -2.2979   -5.8665 C   0  0  0  0  0  0  0  0  0  0  0  0
   -2.8182   -2.7777   -5.8070 O   0  0  0  0  0  0  0  0  0  0  0  0
   -3.7895   -1.9066   -5.2674 C   0  0  0  0  0  0  0  0  0  0  0  0
   -0.5946   -3.4728   -5.8644 C   0  0  0  0  0  0  0  0  0  0  0  0
   -0.8082   -4.4324   -6.7512 N   0  0  0  0  0  0  0  0  0  0  0  0
    0.0047   -5.5098   -6.8301 C   0  0  0  0  0  0  0  0  0  0  0  0
    1.1145   -5.6516   -5.9883 C   0  0  0  0  0  0  0  0  0  0  0  0
    1.3614   -4.6383   -5.0540 C   0  0  0  0  0  0  0  0  0  0  0  0
    0.4667   -3.5565   -4.9797 C   0  0  0  0  0  0  0  0  0  0  0  0
    0.7056   -2.5452   -3.9821 C   0  0  0  0  0  0  0  0  0  0  0  0
    1.5531   -1.5062   -4.1775 N   0  0  0  0  0  0  0  0  0  0  0  0
    2.3529   -1.1859   -5.4095 C   0  0  0  0  0  0  0  0  0  0  0  0
    3.7850   -1.4532   -5.2556 C   0  0  0  0  0  0  0  0  0  0  0  0
    0.0427   -2.4362   -2.7242 C   0  0  0  0  0  0  0  0  0  0  0  0
   -1.0837   -3.2357   -2.1053 C   0  0  0  0  0  0  0  0  0  0  0  0
   -0.6966   -4.5729   -1.3365 C   0  0  0  0  0  0  0  0  0  0  0  0
   -1.9730   -5.1585   -0.7499 C   0  0  0  0  0  0  0  0  0  0  0  0
   -0.1946   -5.6214   -2.2648 C   0  0  0  0  0  0  0  0  0  0  0  0
    0.3027   -4.3630   -0.2381 C   0  0  0  0  0  0  0  0  0  0  0  0
   -0.2290   -3.9604    1.1085 O   0  0  0  0  0  0  0  0  0  0  0  0
    0.3915   -4.2892    2.3511 C   0  0  0  0  0  0  0  0  0  0  0  0
   -0.2401   -3.7706    3.6301 C   0  0  0  0  0  0  0  0  0  0  0  0
   -1.5317   -3.2260    3.3405 N   0  0  0  0  0  0  0  0  0  0  0  0
   -2.2875   -2.7403    4.4035 N   0  0  0  0  0  0  0  0  0  0  0  0
   -2.7814   -1.4592    4.3887 C   0  0  0  0  0  0  0  0  0  0  0  0
   -2.4295   -0.5650    3.2336 C   0  0  0  0  0  0  0  0  0  0  0  0
   -3.5429    0.2659    2.8039 N   0  0  0  0  0  0  0  0  0  0  0  0
   -4.2437    0.0506    1.6672 C   0  0  0  0  0  0  0  0  0  0  0  0
   -5.2435    1.0995    1.2886 C   0  0  0  0  0  0  0  0  0  0  0  0
   -6.7283    0.7107    1.6069 C   0  0  0  0  0  0  0  0  0  0  0  0
   -7.6783    1.8408    1.3649 C   0  0  0  0  0  0  0  0  0  0  0  0
   -6.8959    0.0997    2.9604 C   0  0  0  0  0  0  0  0  0  0  0  0
   -5.0500    1.3689   -0.1469 N   0  0  0  0  0  0  0  0  0  0  0  0
   -4.0861    2.2780   -0.5373 C   0  0  0  0  0  0  0  0  0  0  0  0
   -3.7303    2.5887   -1.9762 C   0  0  0  0  0  0  0  0  0  0  0  0
   -2.8826    1.4428   -2.4811 C   0  0  0  0  0  0  0  0  0  0  0  0
   -2.5178    1.6461   -3.9186 C   0  0  0  0  0  0  0  0  0  0  0  0
   -1.7817    2.9030   -4.0277 N   0  0  0  0  0  0  0  0  0  0  0  0
   -0.5195    2.8836   -4.5603 C   0  0  0  0  0  0  0  0  0  0  0  0
    0.5257    3.6896   -4.1314 C   0  0  0  0  0  0  0  0  0  0  0  0
    1.4972    4.2981   -3.9011 C   0  0  0  0  0  0  0  0  0  0  0  0
    2.5777    5.1006   -3.4967 C   0  0  0  0  0  0  0  0  0  0  0  0
    2.4291    6.4356   -3.9752 N   0  0  0  0  0  0  0  0  0  0  0  0
    2.0874    6.6343   -5.3372 C   0  0  0  0  0  0  0  0  0  0  0  0
    2.9406    7.5473   -3.2887 C   0  0  0  0  0  0  0  0  0  0  0  0
    3.8880    4.5236   -4.0339 C   0  0  0  0  0  0  0  0  0  0  0  0
    2.6589    5.0786   -1.9887 C   0  0  0  0  0  0  0  0  0  0  0  0
   -0.2598    2.0442   -5.4211 O   0  0  0  0  0  0  0  0  0  0  0  0
   -2.4595    4.0846   -3.5388 C   0  0  0  0  0  0  0  0  0  0  0  0
   -2.9357    3.9008   -2.1300 C   0  0  0  0  0  0  0  0  0  0  0  0
   -3.4421    2.8486    0.3611 O   0  0  0  0  0  0  0  0  0  0  0  0
   -5.8061    0.5689   -1.1262 C   0  0  0  0  0  0  0  0  0  0  0  0
   -3.9781   -0.9006    0.9503 O   0  0  0  0  0  0  0  0  0  0  0  0
   -1.2234    0.3642    3.6512 C   0  0  0  0  0  0  0  0  0  0  0  0
   -0.6765    1.2649    2.5168 C   0  0  0  0  0  0  0  0  0  0  0  0
    0.1294    0.3996    1.6236 C   0  0  0  0  0  0  0  0  0  0  0  0
    0.7605    1.1533    0.5802 N   0  0  0  0  0  0  0  0  0  0  0  0
    1.5583    2.2993    1.0441 C   0  0  0  0  0  0  0  0  0  0  0  0
    0.7642    3.1278    2.0644 C   0  0  0  0  0  0  0  0  0  0  0  0
    0.1853    2.2738    3.1121 O   0  0  0  0  0  0  0  0  0  0  0  0
   -3.4615   -1.0083    5.3273 O   0  0  0  0  0  0  0  0  0  0  0  0
   -2.5629   -3.7018    5.4722 C   0  0  0  0  0  0  0  0  0  0  0  0
   -1.2297   -4.3585    5.9118 C   0  0  0  0  0  0  0  0  0  0  0  0
   -0.4071   -4.8761    4.7179 C   0  0  0  0  0  0  0  0  0  0  0  0
    1.4258   -4.9811    2.4617 O   0  0  0  0  0  0  0  0  0  0  0  0
    0.6162   -1.2819   -2.1590 C   0  0  0  0  0  0  0  0  0  0  0  0
    1.5265   -0.7447   -3.0756 C   0  0  0  0  0  0  0  0  0  0  0  0
    2.2116    0.4681   -2.7613 C   0  0  0  0  0  0  0  0  0  0  0  0
    1.9272    1.0615   -1.5333 C   0  0  0  0  0  0  0  0  0  0  0  0
    1.0197    0.5156   -0.6296 C   0  0  0  0  0  0  0  0  0  0  0  0
    0.3365   -0.6762   -0.9461 C   0  0  0  0  0  0  0  0  0  0  0  0
   -4.8719    2.7576   -2.7422 F   0  0  0  0  0  0  0  0  0  0  0  0
  1  2  1  0  0  0  0
  2  3  1  0  0  0  0
  2  5  1  0  0  0  0
  3  4  1  0  0  0  0
  5  6  4  0  0  0  0
  5 10  4  0  0  0  0
  6  7  4  0  0  0  0
  7  8  4  0  0  0  0
  8  9  4  0  0  0  0
  9 10  4  0  0  0  0
 10 11  1  0  0  0  0
 11 12  4  0  0  0  0
 11 15  4  0  0  0  0
 12 13  1  0  0  0  0
 12 68  4  0  0  0  0
 13 14  1  0  0  0  0
 15 16  1  0  0  0  0
 15 67  4  0  0  0  0
 16 17  1  0  0  0  0
 17 18  1  0  0  0  0
 17 19  1  0  0  0  0
 17 20  1  0  0  0  0
 20 21  1  0  0  0  0
 21 22  1  0  0  0  0
 22 23  1  0  0  0  0
 22 66  2  0  0  0  0
 23 24  1  0  0  0  0
 23 65  1  0  0  0  0
 24 25  1  0  0  0  0
 25 26  1  0  0  0  0
 25 63  1  0  0  0  0
 26 27  1  0  0  0  0
 26 62  2  0  0  0  0
 27 28  1  0  0  0  0
 27 55  1  0  0  0  0
 28 29  1  0  0  0  0
 29 30  1  0  0  0  0
 29 54  2  0  0  0  0
 30 31  1  0  0  0  0
 30 34  1  0  0  0  0
 31 32  1  0  0  0  0
 31 33  1  0  0  0  0
 34 35  1  0  0  0  0
 34 53  1  0  0  0  0
 35 36  1  0  0  0  0
 35 52  2  0  0  0  0
 36 37  1  0  0  0  0
 36 51  1  0  0  0  0
 36 73  1  0  0  0  0
 37 38  1  0  0  0  0
 38 39  1  0  0  0  0
 39 40  1  0  0  0  0
 39 50  1  0  0  0  0
 40 41  1  0  0  0  0
 40 49  2  0  0  0  0
 41 42  1  0  0  0  0
 42 43  1  0  0  0  0
 43 44  1  0  0  0  0
 43 47  1  0  0  0  0
 43 48  1  0  0  0  0
 44 45  1  0  0  0  0
 44 46  1  0  0  0  0
 50 51  1  0  0  0  0
 55 56  1  0  0  0  0
 56 57  1  0  0  0  0
 56 61  1  0  0  0  0
 57 58  1  0  0  0  0
 58 59  1  0  0  0  0
 58 71  1  0  0  0  0
 59 60  1  0  0  0  0
 60 61  1  0  0  0  0
 63 64  1  0  0  0  0
 64 65  1  0  0  0  0
 67 68  4  0  0  0  0
 67 72  4  0  0  0  0
 68 69  4  0  0  0  0
 69 70  4  0  0  0  0
 70 71  4  0  0  0  0
 71 72  4  0  0  0  0
M  END
$$$$
