mol_ETKDG1_54
  PyMOL3.1          3D                             0

 73 79  0  0  0  0  0  0  0  0999 V2000
   -1.7892    5.0092    0.3392 C   0  0  0  0  0  0  0  0  0  0  0  0
   -0.5985    4.1301    0.2616 C   0  0  0  0  0  0  0  0  0  0  0  0
   -0.0237    4.0348   -1.0369 O   0  0  0  0  0  0  0  0  0  0  0  0
   -0.6584    3.1647   -1.9450 C   0  0  0  0  0  0  0  0  0  0  0  0
    0.4799    4.5578    1.1814 C   0  0  0  0  0  0  0  0  0  0  0  0
    1.2403    5.5742    0.8164 N   0  0  0  0  0  0  0  0  0  0  0  0
    2.2051    6.0509    1.6250 C   0  0  0  0  0  0  0  0  0  0  0  0
    2.4402    5.5029    2.8890 C   0  0  0  0  0  0  0  0  0  0  0  0
    1.6409    4.4325    3.2950 C   0  0  0  0  0  0  0  0  0  0  0  0
    0.6719    3.9512    2.4165 C   0  0  0  0  0  0  0  0  0  0  0  0
   -0.1019    2.8186    2.8356 C   0  0  0  0  0  0  0  0  0  0  0  0
   -1.2046    2.9121    3.6129 N   0  0  0  0  0  0  0  0  0  0  0  0
   -1.8582    4.1572    4.1310 C   0  0  0  0  0  0  0  0  0  0  0  0
   -1.6662    4.3596    5.5610 C   0  0  0  0  0  0  0  0  0  0  0  0
    0.1274    1.4776    2.4485 C   0  0  0  0  0  0  0  0  0  0  0  0
    1.1045    0.8684    1.4902 C   0  0  0  0  0  0  0  0  0  0  0  0
    2.5443    0.5190    2.0172 C   0  0  0  0  0  0  0  0  0  0  0  0
    3.4111    1.7468    2.1953 C   0  0  0  0  0  0  0  0  0  0  0  0
    3.2166   -0.2555    0.9255 C   0  0  0  0  0  0  0  0  0  0  0  0
    2.5510   -0.2867    3.3126 C   0  0  0  0  0  0  0  0  0  0  0  0
    2.5548   -1.7633    3.0980 O   0  0  0  0  0  0  0  0  0  0  0  0
    3.3140   -2.7034    3.8162 C   0  0  0  0  0  0  0  0  0  0  0  0
    3.2074   -4.1608    3.4039 C   0  0  0  0  0  0  0  0  0  0  0  0
    2.6319   -4.2376    2.1039 N   0  0  0  0  0  0  0  0  0  0  0  0
    2.4794   -5.4716    1.5066 N   0  0  0  0  0  0  0  0  0  0  0  0
    1.2737   -5.8463    0.9920 C   0  0  0  0  0  0  0  0  0  0  0  0
    0.1072   -4.9260    1.1681 C   0  0  0  0  0  0  0  0  0  0  0  0
   -0.6965   -4.8221   -0.0304 N   0  0  0  0  0  0  0  0  0  0  0  0
   -0.6997   -3.7394   -0.8377 C   0  0  0  0  0  0  0  0  0  0  0  0
   -1.6998   -3.7433   -1.9338 C   0  0  0  0  0  0  0  0  0  0  0  0
   -1.2125   -4.2404   -3.3078 C   0  0  0  0  0  0  0  0  0  0  0  0
   -2.3188   -4.7886   -4.1362 C   0  0  0  0  0  0  0  0  0  0  0  0
    0.0139   -5.0703   -3.2850 C   0  0  0  0  0  0  0  0  0  0  0  0
   -2.2940   -2.4129   -2.0062 N   0  0  0  0  0  0  0  0  0  0  0  0
   -3.3345   -2.1294   -1.1613 C   0  0  0  0  0  0  0  0  0  0  0  0
   -4.0382   -0.8007   -1.0424 C   0  0  0  0  0  0  0  0  0  0  0  0
   -5.4102   -0.9584   -0.3870 C   0  0  0  0  0  0  0  0  0  0  0  0
   -6.0372    0.3601   -0.0848 C   0  0  0  0  0  0  0  0  0  0  0  0
   -5.0888    1.2246    0.6411 N   0  0  0  0  0  0  0  0  0  0  0  0
   -5.3420    1.8159    1.8461 C   0  0  0  0  0  0  0  0  0  0  0  0
   -6.2321    1.2979    2.7631 C   0  0  0  0  0  0  0  0  0  0  0  0
   -6.9604    0.9850    3.6127 C   0  0  0  0  0  0  0  0  0  0  0  0
   -7.8524    0.4514    4.5615 C   0  0  0  0  0  0  0  0  0  0  0  0
   -8.3720    1.4058    5.4676 N   0  0  0  0  0  0  0  0  0  0  0  0
   -8.3953    2.7617    5.1485 C   0  0  0  0  0  0  0  0  0  0  0  0
   -9.1017    1.0255    6.6071 C   0  0  0  0  0  0  0  0  0  0  0  0
   -9.0078   -0.1989    3.8143 C   0  0  0  0  0  0  0  0  0  0  0  0
   -7.1331   -0.6307    5.3322 C   0  0  0  0  0  0  0  0  0  0  0  0
   -4.7018    2.8241    2.1799 O   0  0  0  0  0  0  0  0  0  0  0  0
   -3.8101    1.4079    0.0393 C   0  0  0  0  0  0  0  0  0  0  0  0
   -3.1604    0.0809   -0.1708 C   0  0  0  0  0  0  0  0  0  0  0  0
   -3.7037   -3.0387   -0.4014 O   0  0  0  0  0  0  0  0  0  0  0  0
   -1.6925   -1.4080   -2.8970 C   0  0  0  0  0  0  0  0  0  0  0  0
    0.0111   -2.7730   -0.5929 O   0  0  0  0  0  0  0  0  0  0  0  0
   -0.7770   -5.4360    2.3691 C   0  0  0  0  0  0  0  0  0  0  0  0
   -1.9961   -4.5344    2.6865 C   0  0  0  0  0  0  0  0  0  0  0  0
   -1.4855   -3.3043    3.3088 C   0  0  0  0  0  0  0  0  0  0  0  0
   -2.5370   -2.4244    3.7236 N   0  0  0  0  0  0  0  0  0  0  0  0
   -3.5754   -3.0399    4.5570 C   0  0  0  0  0  0  0  0  0  0  0  0
   -4.0142   -4.3836    3.9716 C   0  0  0  0  0  0  0  0  0  0  0  0
   -2.8665   -5.2319    3.6153 O   0  0  0  0  0  0  0  0  0  0  0  0
    1.1146   -6.9363    0.4288 O   0  0  0  0  0  0  0  0  0  0  0  0
    3.6921   -6.2861    1.4001 C   0  0  0  0  0  0  0  0  0  0  0  0
    4.4310   -6.2930    2.7566 C   0  0  0  0  0  0  0  0  0  0  0  0
    4.5759   -4.9000    3.3657 C   0  0  0  0  0  0  0  0  0  0  0  0
    4.0608   -2.4146    4.7640 O   0  0  0  0  0  0  0  0  0  0  0  0
   -0.8903    0.7721    3.1003 C   0  0  0  0  0  0  0  0  0  0  0  0
   -1.6821    1.6774    3.7974 C   0  0  0  0  0  0  0  0  0  0  0  0
   -2.8173    1.1963    4.5249 C   0  0  0  0  0  0  0  0  0  0  0  0
   -3.0795   -0.1732    4.4688 C   0  0  0  0  0  0  0  0  0  0  0  0
   -2.2671   -1.0559    3.7601 C   0  0  0  0  0  0  0  0  0  0  0  0
   -1.1580   -0.5807    3.0553 C   0  0  0  0  0  0  0  0  0  0  0  0
   -4.2342   -0.2117   -2.2741 F   0  0  0  0  0  0  0  0  0  0  0  0
  1  2  1  0  0  0  0
  2  3  1  0  0  0  0
  2  5  1  0  0  0  0
  3  4  1  0  0  0  0
  5  6  4  0  0  0  0
  5 10  4  0  0  0  0
  6  7  4  0  0  0  0
  7  8  4  0  0  0  0
  8  9  4  0  0  0  0
  9 10  4  0  0  0  0
 10 11  1  0  0  0  0
 11 12  4  0  0  0  0
 11 15  4  0  0  0  0
 12 13  1  0  0  0  0
 12 68  4  0  0  0  0
 13 14  1  0  0  0  0
 15 16  1  0  0  0  0
 15 67  4  0  0  0  0
 16 17  1  0  0  0  0
 17 18  1  0  0  0  0
 17 19  1  0  0  0  0
 17 20  1  0  0  0  0
 20 21  1  0  0  0  0
 21 22  1  0  0  0  0
 22 23  1  0  0  0  0
 22 66  2  0  0  0  0
 23 24  1  0  0  0  0
 23 65  1  0  0  0  0
 24 25  1  0  0  0  0
 25 26  1  0  0  0  0
 25 63  1  0  0  0  0
 26 27  1  0  0  0  0
 26 62  2  0  0  0  0
 27 28  1  0  0  0  0
 27 55  1  0  0  0  0
 28 29  1  0  0  0  0
 29 30  1  0  0  0  0
 29 54  2  0  0  0  0
 30 31  1  0  0  0  0
 30 34  1  0  0  0  0
 31 32  1  0  0  0  0
 31 33  1  0  0  0  0
 34 35  1  0  0  0  0
 34 53  1  0  0  0  0
 35 36  1  0  0  0  0
 35 52  2  0  0  0  0
 36 37  1  0  0  0  0
 36 51  1  0  0  0  0
 36 73  1  0  0  0  0
 37 38  1  0  0  0  0
 38 39  1  0  0  0  0
 39 40  1  0  0  0  0
 39 50  1  0  0  0  0
 40 41  1  0  0  0  0
 40 49  2  0  0  0  0
 41 42  1  0  0  0  0
 42 43  1  0  0  0  0
 43 44  1  0  0  0  0
 43 47  1  0  0  0  0
 43 48  1  0  0  0  0
 44 45  1  0  0  0  0
 44 46  1  0  0  0  0
 50 51  1  0  0  0  0
 55 56  1  0  0  0  0
 56 57  1  0  0  0  0
 56 61  1  0  0  0  0
 57 58  1  0  0  0  0
 58 59  1  0  0  0  0
 58 71  1  0  0  0  0
 59 60  1  0  0  0  0
 60 61  1  0  0  0  0
 63 64  1  0  0  0  0
 64 65  1  0  0  0  0
 67 68  4  0  0  0  0
 67 72  4  0  0  0  0
 68 69  4  0  0  0  0
 69 70  4  0  0  0  0
 70 71  4  0  0  0  0
 71 72  4  0  0  0  0
M  END
$$$$
