mol_ETKDG0_321
  PyMOL3.1          3D                             0

 73 79  0  0  0  0  0  0  0  0999 V2000
   -1.0804    5.9437    3.9752 C   0  0  0  0  0  0  0  0  0  0  0  0
   -0.2069    4.9639    4.6365 C   0  0  0  0  0  0  0  0  0  0  0  0
    0.9104    5.5220    5.3332 O   0  0  0  0  0  0  0  0  0  0  0  0
    2.0681    5.7551    4.5724 C   0  0  0  0  0  0  0  0  0  0  0  0
   -0.9215    4.0882    5.5818 C   0  0  0  0  0  0  0  0  0  0  0  0
   -1.0145    4.4721    6.8392 N   0  0  0  0  0  0  0  0  0  0  0  0
   -1.6643    3.7289    7.7585 C   0  0  0  0  0  0  0  0  0  0  0  0
   -2.2782    2.5199    7.4207 C   0  0  0  0  0  0  0  0  0  0  0  0
   -2.2035    2.0958    6.0906 C   0  0  0  0  0  0  0  0  0  0  0  0
   -1.5053    2.8958    5.1678 C   0  0  0  0  0  0  0  0  0  0  0  0
   -1.4134    2.4371    3.8022 C   0  0  0  0  0  0  0  0  0  0  0  0
   -2.4402    2.5224    2.9232 N   0  0  0  0  0  0  0  0  0  0  0  0
   -3.7955    3.1309    3.1497 C   0  0  0  0  0  0  0  0  0  0  0  0
   -4.8552    2.1428    3.3100 C   0  0  0  0  0  0  0  0  0  0  0  0
   -0.2527    1.9245    3.1613 C   0  0  0  0  0  0  0  0  0  0  0  0
    1.1633    1.7730    3.6414 C   0  0  0  0  0  0  0  0  0  0  0  0
    1.5343    0.4467    4.4093 C   0  0  0  0  0  0  0  0  0  0  0  0
    0.8658    0.3598    5.7696 C   0  0  0  0  0  0  0  0  0  0  0  0
    3.0126    0.4959    4.6941 C   0  0  0  0  0  0  0  0  0  0  0  0
    1.2050   -0.8070    3.6163 C   0  0  0  0  0  0  0  0  0  0  0  0
    2.2603   -1.2624    2.6302 O   0  0  0  0  0  0  0  0  0  0  0  0
    2.6316   -2.6237    2.4181 C   0  0  0  0  0  0  0  0  0  0  0  0
    3.6911   -2.9532    1.3781 C   0  0  0  0  0  0  0  0  0  0  0  0
    4.4234   -1.7821    1.0095 N   0  0  0  0  0  0  0  0  0  0  0  0
    5.4827   -1.8950    0.1172 N   0  0  0  0  0  0  0  0  0  0  0  0
    5.5744   -1.0795   -0.9788 C   0  0  0  0  0  0  0  0  0  0  0  0
    4.4563   -0.1173   -1.2483 C   0  0  0  0  0  0  0  0  0  0  0  0
    4.9208    1.1792   -1.6999 N   0  0  0  0  0  0  0  0  0  0  0  0
    4.8325    2.2926   -0.9417 C   0  0  0  0  0  0  0  0  0  0  0  0
    5.1842    3.5819   -1.6051 C   0  0  0  0  0  0  0  0  0  0  0  0
    6.6209    4.1000   -1.2721 C   0  0  0  0  0  0  0  0  0  0  0  0
    7.0166    5.2621   -2.1191 C   0  0  0  0  0  0  0  0  0  0  0  0
    7.6450    3.0045   -1.2858 C   0  0  0  0  0  0  0  0  0  0  0  0
    4.1326    4.5541   -1.2422 N   0  0  0  0  0  0  0  0  0  0  0  0
    2.9613    4.5683   -1.9817 C   0  0  0  0  0  0  0  0  0  0  0  0
    1.7599    5.4575   -1.7063 C   0  0  0  0  0  0  0  0  0  0  0  0
    1.0127    4.8598   -0.5352 C   0  0  0  0  0  0  0  0  0  0  0  0
   -0.2007    5.6718   -0.1988 C   0  0  0  0  0  0  0  0  0  0  0  0
   -1.0699    5.7151   -1.3744 N   0  0  0  0  0  0  0  0  0  0  0  0
   -2.3705    5.2837   -1.2600 C   0  0  0  0  0  0  0  0  0  0  0  0
   -3.0602    4.5718   -2.2457 C   0  0  0  0  0  0  0  0  0  0  0  0
   -3.7686    3.9773   -2.9615 C   0  0  0  0  0  0  0  0  0  0  0  0
   -4.5444    3.2693   -3.9069 C   0  0  0  0  0  0  0  0  0  0  0  0
   -5.7115    4.0320   -4.2171 N   0  0  0  0  0  0  0  0  0  0  0  0
   -5.6655    5.0259   -5.2128 C   0  0  0  0  0  0  0  0  0  0  0  0
   -6.7797    4.1022   -3.2794 C   0  0  0  0  0  0  0  0  0  0  0  0
   -3.6983    2.9904   -5.1356 C   0  0  0  0  0  0  0  0  0  0  0  0
   -4.9621    1.9128   -3.3671 C   0  0  0  0  0  0  0  0  0  0  0  0
   -2.9456    5.4575   -0.1954 O   0  0  0  0  0  0  0  0  0  0  0  0
   -0.4687    6.2046   -2.5895 C   0  0  0  0  0  0  0  0  0  0  0  0
    0.7983    5.5032   -2.9127 C   0  0  0  0  0  0  0  0  0  0  0  0
    2.8893    3.7717   -2.9353 O   0  0  0  0  0  0  0  0  0  0  0  0
    4.3078    5.3771   -0.0414 C   0  0  0  0  0  0  0  0  0  0  0  0
    4.3778    2.2339    0.1895 O   0  0  0  0  0  0  0  0  0  0  0  0
    3.4972   -0.7345   -2.3290 C   0  0  0  0  0  0  0  0  0  0  0  0
    2.2131    0.0778   -2.5818 C   0  0  0  0  0  0  0  0  0  0  0  0
    1.3348   -0.0773   -1.3902 C   0  0  0  0  0  0  0  0  0  0  0  0
    0.0576    0.5433   -1.5730 N   0  0  0  0  0  0  0  0  0  0  0  0
   -0.6469    0.1527   -2.8039 C   0  0  0  0  0  0  0  0  0  0  0  0
    0.2980    0.1958   -4.0118 C   0  0  0  0  0  0  0  0  0  0  0  0
    1.5557   -0.5057   -3.7356 O   0  0  0  0  0  0  0  0  0  0  0  0
    6.5256   -1.1501   -1.7727 O   0  0  0  0  0  0  0  0  0  0  0  0
    6.5127   -2.8703    0.4654 C   0  0  0  0  0  0  0  0  0  0  0  0
    5.8532   -4.2070    0.8615 C   0  0  0  0  0  0  0  0  0  0  0  0
    4.7076   -4.0325    1.8599 C   0  0  0  0  0  0  0  0  0  0  0  0
    2.1415   -3.5842    3.0449 O   0  0  0  0  0  0  0  0  0  0  0  0
   -0.6865    1.6509    1.8518 C   0  0  0  0  0  0  0  0  0  0  0  0
   -2.0210    2.0356    1.7520 C   0  0  0  0  0  0  0  0  0  0  0  0
   -2.6974    1.8941    0.5032 C   0  0  0  0  0  0  0  0  0  0  0  0
   -1.9638    1.3971   -0.5692 C   0  0  0  0  0  0  0  0  0  0  0  0
   -0.6282    1.0340   -0.4611 C   0  0  0  0  0  0  0  0  0  0  0  0
    0.0397    1.1574    0.7731 C   0  0  0  0  0  0  0  0  0  0  0  0
    2.1529    6.7593   -1.4568 F   0  0  0  0  0  0  0  0  0  0  0  0
  1  2  1  0  0  0  0
  2  3  1  0  0  0  0
  2  5  1  0  0  0  0
  3  4  1  0  0  0  0
  5  6  4  0  0  0  0
  5 10  4  0  0  0  0
  6  7  4  0  0  0  0
  7  8  4  0  0  0  0
  8  9  4  0  0  0  0
  9 10  4  0  0  0  0
 10 11  1  0  0  0  0
 11 12  4  0  0  0  0
 11 15  4  0  0  0  0
 12 13  1  0  0  0  0
 12 68  4  0  0  0  0
 13 14  1  0  0  0  0
 15 16  1  0  0  0  0
 15 67  4  0  0  0  0
 16 17  1  0  0  0  0
 17 18  1  0  0  0  0
 17 19  1  0  0  0  0
 17 20  1  0  0  0  0
 20 21  1  0  0  0  0
 21 22  1  0  0  0  0
 22 23  1  0  0  0  0
 22 66  2  0  0  0  0
 23 24  1  0  0  0  0
 23 65  1  0  0  0  0
 24 25  1  0  0  0  0
 25 26  1  0  0  0  0
 25 63  1  0  0  0  0
 26 27  1  0  0  0  0
 26 62  2  0  0  0  0
 27 28  1  0  0  0  0
 27 55  1  0  0  0  0
 28 29  1  0  0  0  0
 29 30  1  0  0  0  0
 29 54  2  0  0  0  0
 30 31  1  0  0  0  0
 30 34  1  0  0  0  0
 31 32  1  0  0  0  0
 31 33  1  0  0  0  0
 34 35  1  0  0  0  0
 34 53  1  0  0  0  0
 35 36  1  0  0  0  0
 35 52  2  0  0  0  0
 36 37  1  0  0  0  0
 36 51  1  0  0  0  0
 36 73  1  0  0  0  0
 37 38  1  0  0  0  0
 38 39  1  0  0  0  0
 39 40  1  0  0  0  0
 39 50  1  0  0  0  0
 40 41  1  0  0  0  0
 40 49  2  0  0  0  0
 41 42  1  0  0  0  0
 42 43  1  0  0  0  0
 43 44  1  0  0  0  0
 43 47  1  0  0  0  0
 43 48  1  0  0  0  0
 44 45  1  0  0  0  0
 44 46  1  0  0  0  0
 50 51  1  0  0  0  0
 55 56  1  0  0  0  0
 56 57  1  0  0  0  0
 56 61  1  0  0  0  0
 57 58  1  0  0  0  0
 58 59  1  0  0  0  0
 58 71  1  0  0  0  0
 59 60  1  0  0  0  0
 60 61  1  0  0  0  0
 63 64  1  0  0  0  0
 64 65  1  0  0  0  0
 67 68  4  0  0  0  0
 67 72  4  0  0  0  0
 68 69  4  0  0  0  0
 69 70  4  0  0  0  0
 70 71  4  0  0  0  0
 71 72  4  0  0  0  0
M  END
$$$$
