mol_ETKDG5_300
  PyMOL3.1          3D                             0

 73 79  0  0  0  0  0  0  0  0999 V2000
   -4.1338   -1.9432    4.0005 C   0  0  0  0  0  0  0  0  0  0  0  0
   -2.8004   -1.8223    4.6292 C   0  0  0  0  0  0  0  0  0  0  0  0
   -2.7160   -0.8769    5.6937 O   0  0  0  0  0  0  0  0  0  0  0  0
   -2.6290    0.4807    5.3297 C   0  0  0  0  0  0  0  0  0  0  0  0
   -2.3001   -3.1098    5.1547 C   0  0  0  0  0  0  0  0  0  0  0  0
   -2.6820   -3.4808    6.3663 N   0  0  0  0  0  0  0  0  0  0  0  0
   -2.2853   -4.6593    6.9006 C   0  0  0  0  0  0  0  0  0  0  0  0
   -1.4667   -5.5442    6.1906 C   0  0  0  0  0  0  0  0  0  0  0  0
   -1.0656   -5.1788    4.9002 C   0  0  0  0  0  0  0  0  0  0  0  0
   -1.4752   -3.9309    4.3925 C   0  0  0  0  0  0  0  0  0  0  0  0
   -1.0334   -3.5550    3.0742 C   0  0  0  0  0  0  0  0  0  0  0  0
   -1.6311   -4.0088    1.9414 N   0  0  0  0  0  0  0  0  0  0  0  0
   -2.8370   -4.9064    1.8263 C   0  0  0  0  0  0  0  0  0  0  0  0
   -2.5039   -6.2797    1.4235 C   0  0  0  0  0  0  0  0  0  0  0  0
    0.0119   -2.6290    2.7631 C   0  0  0  0  0  0  0  0  0  0  0  0
    0.8816   -1.7465    3.6397 C   0  0  0  0  0  0  0  0  0  0  0  0
    2.2723   -2.3451    4.1472 C   0  0  0  0  0  0  0  0  0  0  0  0
    2.0888   -3.6303    4.9331 C   0  0  0  0  0  0  0  0  0  0  0  0
    2.8571   -1.3519    5.1305 C   0  0  0  0  0  0  0  0  0  0  0  0
    3.2896   -2.6161    3.0201 C   0  0  0  0  0  0  0  0  0  0  0  0
    4.0412   -1.4013    2.4980 O   0  0  0  0  0  0  0  0  0  0  0  0
    5.4620   -1.3504    2.2722 C   0  0  0  0  0  0  0  0  0  0  0  0
    6.0879   -0.0975    1.6621 C   0  0  0  0  0  0  0  0  0  0  0  0
    5.1879    1.0076    1.7614 N   0  0  0  0  0  0  0  0  0  0  0  0
    5.6132    2.2453    1.2700 N   0  0  0  0  0  0  0  0  0  0  0  0
    4.8671    2.9308    0.3503 C   0  0  0  0  0  0  0  0  0  0  0  0
    3.5984    2.3025   -0.1427 C   0  0  0  0  0  0  0  0  0  0  0  0
    2.5276    3.2746   -0.2955 N   0  0  0  0  0  0  0  0  0  0  0  0
    1.5452    3.4392    0.6176 C   0  0  0  0  0  0  0  0  0  0  0  0
    0.4511    4.3889    0.2511 C   0  0  0  0  0  0  0  0  0  0  0  0
    0.5034    5.7644    0.9935 C   0  0  0  0  0  0  0  0  0  0  0  0
   -0.4295    6.7714    0.3921 C   0  0  0  0  0  0  0  0  0  0  0  0
    1.8910    6.2937    1.1661 C   0  0  0  0  0  0  0  0  0  0  0  0
   -0.8227    3.6980    0.4819 N   0  0  0  0  0  0  0  0  0  0  0  0
   -1.3518    2.9509   -0.5412 C   0  0  0  0  0  0  0  0  0  0  0  0
   -2.6204    2.1370   -0.4620 C   0  0  0  0  0  0  0  0  0  0  0  0
   -3.2443    1.8692   -1.8382 C   0  0  0  0  0  0  0  0  0  0  0  0
   -4.4260    0.9510   -1.7255 C   0  0  0  0  0  0  0  0  0  0  0  0
   -4.0762   -0.2565   -0.9425 N   0  0  0  0  0  0  0  0  0  0  0  0
   -4.3050   -1.5343   -1.3724 C   0  0  0  0  0  0  0  0  0  0  0  0
   -4.3360   -1.8761   -2.7141 C   0  0  0  0  0  0  0  0  0  0  0  0
   -4.4248   -2.2902   -3.7885 C   0  0  0  0  0  0  0  0  0  0  0  0
   -4.4370   -2.6439   -5.1621 C   0  0  0  0  0  0  0  0  0  0  0  0
   -5.5342   -3.5171   -5.4375 N   0  0  0  0  0  0  0  0  0  0  0  0
   -5.4246   -4.8982   -5.1868 C   0  0  0  0  0  0  0  0  0  0  0  0
   -6.8237   -3.0088   -5.7064 C   0  0  0  0  0  0  0  0  0  0  0  0
   -4.5127   -1.3874   -6.0073 C   0  0  0  0  0  0  0  0  0  0  0  0
   -3.1224   -3.3237   -5.5285 C   0  0  0  0  0  0  0  0  0  0  0  0
   -4.4292   -2.4408   -0.5372 O   0  0  0  0  0  0  0  0  0  0  0  0
   -3.4618   -0.0509    0.3316 C   0  0  0  0  0  0  0  0  0  0  0  0
   -2.2518    0.8079    0.1880 C   0  0  0  0  0  0  0  0  0  0  0  0
   -0.7120    2.9211   -1.6117 O   0  0  0  0  0  0  0  0  0  0  0  0
   -1.4240    3.7423    1.8310 C   0  0  0  0  0  0  0  0  0  0  0  0
    1.5195    2.7452    1.6189 O   0  0  0  0  0  0  0  0  0  0  0  0
    3.8643    1.5721   -1.5158 C   0  0  0  0  0  0  0  0  0  0  0  0
    2.6466    0.7993   -2.0917 C   0  0  0  0  0  0  0  0  0  0  0  0
    2.4241   -0.4062   -1.2454 C   0  0  0  0  0  0  0  0  0  0  0  0
    1.3791   -1.2547   -1.7698 N   0  0  0  0  0  0  0  0  0  0  0  0
    1.5159   -1.6167   -3.1811 C   0  0  0  0  0  0  0  0  0  0  0  0
    1.8823   -0.3907   -4.0314 C   0  0  0  0  0  0  0  0  0  0  0  0
    2.9883    0.3804   -3.4385 O   0  0  0  0  0  0  0  0  0  0  0  0
    5.2323    4.0283   -0.1123 O   0  0  0  0  0  0  0  0  0  0  0  0
    6.8484    2.7707    1.8550 C   0  0  0  0  0  0  0  0  0  0  0  0
    7.9328    1.6749    1.7982 C   0  0  0  0  0  0  0  0  0  0  0  0
    7.4317    0.3219    2.3487 C   0  0  0  0  0  0  0  0  0  0  0  0
    6.2213   -2.2882    2.5580 O   0  0  0  0  0  0  0  0  0  0  0  0
    0.0176   -2.6181    1.3564 C   0  0  0  0  0  0  0  0  0  0  0  0
   -0.9959   -3.4670    0.8946 C   0  0  0  0  0  0  0  0  0  0  0  0
   -1.2207   -3.5999   -0.5146 C   0  0  0  0  0  0  0  0  0  0  0  0
   -0.4153   -2.8421   -1.3661 C   0  0  0  0  0  0  0  0  0  0  0  0
    0.5937   -2.0020   -0.8864 C   0  0  0  0  0  0  0  0  0  0  0  0
    0.8187   -1.8802    0.4977 C   0  0  0  0  0  0  0  0  0  0  0  0
   -3.5900    2.7825    0.2890 F   0  0  0  0  0  0  0  0  0  0  0  0
  1  2  1  0  0  0  0
  2  3  1  0  0  0  0
  2  5  1  0  0  0  0
  3  4  1  0  0  0  0
  5  6  4  0  0  0  0
  5 10  4  0  0  0  0
  6  7  4  0  0  0  0
  7  8  4  0  0  0  0
  8  9  4  0  0  0  0
  9 10  4  0  0  0  0
 10 11  1  0  0  0  0
 11 12  4  0  0  0  0
 11 15  4  0  0  0  0
 12 13  1  0  0  0  0
 12 68  4  0  0  0  0
 13 14  1  0  0  0  0
 15 16  1  0  0  0  0
 15 67  4  0  0  0  0
 16 17  1  0  0  0  0
 17 18  1  0  0  0  0
 17 19  1  0  0  0  0
 17 20  1  0  0  0  0
 20 21  1  0  0  0  0
 21 22  1  0  0  0  0
 22 23  1  0  0  0  0
 22 66  2  0  0  0  0
 23 24  1  0  0  0  0
 23 65  1  0  0  0  0
 24 25  1  0  0  0  0
 25 26  1  0  0  0  0
 25 63  1  0  0  0  0
 26 27  1  0  0  0  0
 26 62  2  0  0  0  0
 27 28  1  0  0  0  0
 27 55  1  0  0  0  0
 28 29  1  0  0  0  0
 29 30  1  0  0  0  0
 29 54  2  0  0  0  0
 30 31  1  0  0  0  0
 30 34  1  0  0  0  0
 31 32  1  0  0  0  0
 31 33  1  0  0  0  0
 34 35  1  0  0  0  0
 34 53  1  0  0  0  0
 35 36  1  0  0  0  0
 35 52  2  0  0  0  0
 36 37  1  0  0  0  0
 36 51  1  0  0  0  0
 36 73  1  0  0  0  0
 37 38  1  0  0  0  0
 38 39  1  0  0  0  0
 39 40  1  0  0  0  0
 39 50  1  0  0  0  0
 40 41  1  0  0  0  0
 40 49  2  0  0  0  0
 41 42  1  0  0  0  0
 42 43  1  0  0  0  0
 43 44  1  0  0  0  0
 43 47  1  0  0  0  0
 43 48  1  0  0  0  0
 44 45  1  0  0  0  0
 44 46  1  0  0  0  0
 50 51  1  0  0  0  0
 55 56  1  0  0  0  0
 56 57  1  0  0  0  0
 56 61  1  0  0  0  0
 57 58  1  0  0  0  0
 58 59  1  0  0  0  0
 58 71  1  0  0  0  0
 59 60  1  0  0  0  0
 60 61  1  0  0  0  0
 63 64  1  0  0  0  0
 64 65  1  0  0  0  0
 67 68  4  0  0  0  0
 67 72  4  0  0  0  0
 68 69  4  0  0  0  0
 69 70  4  0  0  0  0
 70 71  4  0  0  0  0
 71 72  4  0  0  0  0
M  END
$$$$
