mol_bioactive_5
  PyMOL3.1          3D                             0

 73 79  0  0  0  0  0  0  0  0999 V2000
    4.4434    2.4026    0.0650 C   0  0  0  0  0  0  0  0  0  0  0  0
    4.7786    1.0255   -0.3464 C   0  0  0  0  0  0  0  0  0  0  0  0
    3.9048    0.4746   -1.3275 O   0  0  0  0  0  0  0  0  0  0  0  0
    3.6595    1.1499   -2.5357 C   0  0  0  0  0  0  0  0  0  0  0  0
    4.8242    0.0002    0.7136 C   0  0  0  0  0  0  0  0  0  0  0  0
    6.0812   -0.4053    0.7007 N   0  0  0  0  0  0  0  0  0  0  0  0
    6.5433   -1.3020    1.5494 C   0  0  0  0  0  0  0  0  0  0  0  0
    5.7471   -1.8499    2.5324 C   0  0  0  0  0  0  0  0  0  0  0  0
    4.4115   -1.4455    2.6075 C   0  0  0  0  0  0  0  0  0  0  0  0
    3.9345   -0.5296    1.6829 C   0  0  0  0  0  0  0  0  0  0  0  0
    2.5426   -0.1699    1.7655 C   0  0  0  0  0  0  0  0  0  0  0  0
    2.0617    0.7584    2.6387 N   0  0  0  0  0  0  0  0  0  0  0  0
    2.8183    1.5506    3.6722 C   0  0  0  0  0  0  0  0  0  0  0  0
    3.0535    2.9682    3.3261 C   0  0  0  0  0  0  0  0  0  0  0  0
    1.4861   -0.7106    0.9754 C   0  0  0  0  0  0  0  0  0  0  0  0
    1.4819   -1.7008   -0.1584 C   0  0  0  0  0  0  0  0  0  0  0  0
    1.4909   -3.2534    0.1794 C   0  0  0  0  0  0  0  0  0  0  0  0
    2.8686   -3.7346    0.5986 C   0  0  0  0  0  0  0  0  0  0  0  0
    1.2057   -3.9883   -1.0974 C   0  0  0  0  0  0  0  0  0  0  0  0
    0.4742   -3.6896    1.2281 C   0  0  0  0  0  0  0  0  0  0  0  0
   -0.8694   -4.0893    0.6877 O   0  0  0  0  0  0  0  0  0  0  0  0
   -1.7935   -4.9673    1.3195 C   0  0  0  0  0  0  0  0  0  0  0  0
   -3.1062   -5.2776    0.6168 C   0  0  0  0  0  0  0  0  0  0  0  0
   -3.1180   -4.6905   -0.6895 N   0  0  0  0  0  0  0  0  0  0  0  0
   -4.1939   -4.9162   -1.5369 N   0  0  0  0  0  0  0  0  0  0  0  0
   -4.8396   -3.8690   -2.1508 C   0  0  0  0  0  0  0  0  0  0  0  0
   -4.4404   -2.4591   -1.7938 C   0  0  0  0  0  0  0  0  0  0  0  0
   -4.4377   -1.5659   -2.9556 N   0  0  0  0  0  0  0  0  0  0  0  0
   -3.3442   -1.1540   -3.6096 C   0  0  0  0  0  0  0  0  0  0  0  0
   -3.5409   -0.1092   -4.6748 C   0  0  0  0  0  0  0  0  0  0  0  0
   -3.5315   -0.6587   -6.1439 C   0  0  0  0  0  0  0  0  0  0  0  0
   -4.2518   -1.9377   -6.3061 C   0  0  0  0  0  0  0  0  0  0  0  0
   -3.9879    0.3769   -7.1434 C   0  0  0  0  0  0  0  0  0  0  0  0
   -2.5077    0.9094   -4.4307 N   0  0  0  0  0  0  0  0  0  0  0  0
   -2.7602    1.8970   -3.4866 C   0  0  0  0  0  0  0  0  0  0  0  0
   -1.7538    2.9354   -3.0313 C   0  0  0  0  0  0  0  0  0  0  0  0
   -2.3663    4.0691   -2.1921 C   0  0  0  0  0  0  0  0  0  0  0  0
   -1.3238    4.9863   -1.6340 C   0  0  0  0  0  0  0  0  0  0  0  0
   -0.2279    4.2393   -0.9935 N   0  0  0  0  0  0  0  0  0  0  0  0
    0.3027    4.5153    0.2367 C   0  0  0  0  0  0  0  0  0  0  0  0
   -0.3037    5.3135    1.2024 C   0  0  0  0  0  0  0  0  0  0  0  0
   -0.6233    5.9932    2.1171 C   0  0  0  0  0  0  0  0  0  0  0  0
   -1.0602    6.8265    3.1581 C   0  0  0  0  0  0  0  0  0  0  0  0
    0.0215    7.6413    3.6154 N   0  0  0  0  0  0  0  0  0  0  0  0
   -0.1534    8.9647    4.0342 C   0  0  0  0  0  0  0  0  0  0  0  0
    1.2860    7.0667    3.8599 C   0  0  0  0  0  0  0  0  0  0  0  0
   -1.5765    6.0074    4.3326 C   0  0  0  0  0  0  0  0  0  0  0  0
   -2.2082    7.6578    2.6537 C   0  0  0  0  0  0  0  0  0  0  0  0
    1.3860    3.9905    0.5397 O   0  0  0  0  0  0  0  0  0  0  0  0
    0.3165    3.1417   -1.7189 C   0  0  0  0  0  0  0  0  0  0  0  0
   -0.7379    2.2092   -2.1709 C   0  0  0  0  0  0  0  0  0  0  0  0
   -3.8832    1.9075   -2.9557 O   0  0  0  0  0  0  0  0  0  0  0  0
   -1.1999    0.7596   -5.0942 C   0  0  0  0  0  0  0  0  0  0  0  0
   -2.2478   -1.5215   -3.2424 O   0  0  0  0  0  0  0  0  0  0  0  0
   -5.4434   -1.9129   -0.7095 C   0  0  0  0  0  0  0  0  0  0  0  0
   -5.0646   -0.8210    0.3273 C   0  0  0  0  0  0  0  0  0  0  0  0
   -3.6416   -0.5082    0.3579 C   0  0  0  0  0  0  0  0  0  0  0  0
   -3.2617    0.5958    1.1883 N   0  0  0  0  0  0  0  0  0  0  0  0
   -4.2526    1.5344    1.6287 C   0  0  0  0  0  0  0  0  0  0  0  0
   -5.6312    1.3694    1.1116 C   0  0  0  0  0  0  0  0  0  0  0  0
   -5.8849    0.3441    0.1285 O   0  0  0  0  0  0  0  0  0  0  0  0
   -5.7860   -4.0542   -2.9327 O   0  0  0  0  0  0  0  0  0  0  0  0
   -4.5419   -6.3178   -1.7611 C   0  0  0  0  0  0  0  0  0  0  0  0
   -4.5944   -7.0792   -0.4156 C   0  0  0  0  0  0  0  0  0  0  0  0
   -3.3940   -6.7946    0.4857 C   0  0  0  0  0  0  0  0  0  0  0  0
   -1.5874   -5.4934    2.4188 O   0  0  0  0  0  0  0  0  0  0  0  0
    0.3571   -0.0174    1.4262 C   0  0  0  0  0  0  0  0  0  0  0  0
    0.7480    0.8760    2.4227 C   0  0  0  0  0  0  0  0  0  0  0  0
   -0.2338    1.7316    3.0213 C   0  0  0  0  0  0  0  0  0  0  0  0
   -1.5473    1.6156    2.5728 C   0  0  0  0  0  0  0  0  0  0  0  0
   -1.9272    0.7048    1.5882 C   0  0  0  0  0  0  0  0  0  0  0  0
   -0.9597   -0.1278    0.9948 C   0  0  0  0  0  0  0  0  0  0  0  0
   -1.1320    3.5338   -4.1214 F   0  0  0  0  0  0  0  0  0  0  0  0
  1  2  1  0  0  0  0
  2  3  1  0  0  0  0
  2  5  1  0  0  0  0
  3  4  1  0  0  0  0
  5  6  4  0  0  0  0
  5 10  4  0  0  0  0
  6  7  4  0  0  0  0
  7  8  4  0  0  0  0
  8  9  4  0  0  0  0
  9 10  4  0  0  0  0
 10 11  1  0  0  0  0
 11 12  4  0  0  0  0
 11 15  4  0  0  0  0
 12 13  1  0  0  0  0
 12 68  4  0  0  0  0
 13 14  1  0  0  0  0
 15 16  1  0  0  0  0
 15 67  4  0  0  0  0
 16 17  1  0  0  0  0
 17 18  1  0  0  0  0
 17 19  1  0  0  0  0
 17 20  1  0  0  0  0
 20 21  1  0  0  0  0
 21 22  1  0  0  0  0
 22 23  1  0  0  0  0
 22 66  2  0  0  0  0
 23 24  1  0  0  0  0
 23 65  1  0  0  0  0
 24 25  1  0  0  0  0
 25 26  1  0  0  0  0
 25 63  1  0  0  0  0
 26 27  1  0  0  0  0
 26 62  2  0  0  0  0
 27 28  1  0  0  0  0
 27 55  1  0  0  0  0
 28 29  1  0  0  0  0
 29 30  1  0  0  0  0
 29 54  2  0  0  0  0
 30 31  1  0  0  0  0
 30 34  1  0  0  0  0
 31 32  1  0  0  0  0
 31 33  1  0  0  0  0
 34 35  1  0  0  0  0
 34 53  1  0  0  0  0
 35 36  1  0  0  0  0
 35 52  2  0  0  0  0
 36 37  1  0  0  0  0
 36 51  1  0  0  0  0
 36 73  1  0  0  0  0
 37 38  1  0  0  0  0
 38 39  1  0  0  0  0
 39 40  1  0  0  0  0
 39 50  1  0  0  0  0
 40 41  1  0  0  0  0
 40 49  2  0  0  0  0
 41 42  1  0  0  0  0
 42 43  1  0  0  0  0
 43 44  1  0  0  0  0
 43 47  1  0  0  0  0
 43 48  1  0  0  0  0
 44 45  1  0  0  0  0
 44 46  1  0  0  0  0
 50 51  1  0  0  0  0
 55 56  1  0  0  0  0
 56 57  1  0  0  0  0
 56 61  1  0  0  0  0
 57 58  1  0  0  0  0
 58 59  1  0  0  0  0
 58 71  1  0  0  0  0
 59 60  1  0  0  0  0
 60 61  1  0  0  0  0
 63 64  1  0  0  0  0
 64 65  1  0  0  0  0
 67 68  4  0  0  0  0
 67 72  4  0  0  0  0
 68 69  4  0  0  0  0
 69 70  4  0  0  0  0
 70 71  4  0  0  0  0
 71 72  4  0  0  0  0
M  END
$$$$
