mol_ETKDG1_100
  PyMOL3.1          3D                             0

 73 79  0  0  0  0  0  0  0  0999 V2000
    1.1273    3.6293    3.8082 C   0  0  0  0  0  0  0  0  0  0  0  0
   -0.2163    3.0511    4.0223 C   0  0  0  0  0  0  0  0  0  0  0  0
   -1.3020    3.9137    3.7174 O   0  0  0  0  0  0  0  0  0  0  0  0
   -1.6013    4.1072    2.3471 C   0  0  0  0  0  0  0  0  0  0  0  0
   -0.4139    2.5642    5.4022 C   0  0  0  0  0  0  0  0  0  0  0  0
   -0.7415    3.4482    6.3303 N   0  0  0  0  0  0  0  0  0  0  0  0
   -0.8881    3.0856    7.6242 C   0  0  0  0  0  0  0  0  0  0  0  0
   -0.6959    1.7633    8.0414 C   0  0  0  0  0  0  0  0  0  0  0  0
   -0.3386    0.8107    7.0755 C   0  0  0  0  0  0  0  0  0  0  0  0
   -0.2174    1.2212    5.7366 C   0  0  0  0  0  0  0  0  0  0  0  0
    0.1361    0.2375    4.7357 C   0  0  0  0  0  0  0  0  0  0  0  0
    1.4054   -0.2044    4.5451 N   0  0  0  0  0  0  0  0  0  0  0  0
    2.6469    0.1994    5.2885 C   0  0  0  0  0  0  0  0  0  0  0  0
    3.0868   -0.8191    6.2545 C   0  0  0  0  0  0  0  0  0  0  0  0
   -0.7434   -0.3268    3.7712 C   0  0  0  0  0  0  0  0  0  0  0  0
   -2.2220   -0.0970    3.5185 C   0  0  0  0  0  0  0  0  0  0  0  0
   -3.2007   -1.0570    4.3446 C   0  0  0  0  0  0  0  0  0  0  0  0
   -3.0689   -0.8813    5.8420 C   0  0  0  0  0  0  0  0  0  0  0  0
   -4.6265   -0.6563    4.0343 C   0  0  0  0  0  0  0  0  0  0  0  0
   -2.9798   -2.5286    4.0071 C   0  0  0  0  0  0  0  0  0  0  0  0
   -3.6165   -2.9492    2.7121 O   0  0  0  0  0  0  0  0  0  0  0  0
   -4.4754   -4.0732    2.5518 C   0  0  0  0  0  0  0  0  0  0  0  0
   -5.0496   -4.3712    1.1739 C   0  0  0  0  0  0  0  0  0  0  0  0
   -4.9840   -3.1914    0.3469 N   0  0  0  0  0  0  0  0  0  0  0  0
   -5.5355   -3.2762   -0.9301 N   0  0  0  0  0  0  0  0  0  0  0  0
   -4.7976   -2.9816   -2.0442 C   0  0  0  0  0  0  0  0  0  0  0  0
   -3.3649   -2.5903   -1.8720 C   0  0  0  0  0  0  0  0  0  0  0  0
   -2.9649   -1.5584   -2.8090 N   0  0  0  0  0  0  0  0  0  0  0  0
   -2.8360   -0.2620   -2.4636 C   0  0  0  0  0  0  0  0  0  0  0  0
   -2.2558    0.6413   -3.5061 C   0  0  0  0  0  0  0  0  0  0  0  0
   -3.3030    1.5675   -4.2151 C   0  0  0  0  0  0  0  0  0  0  0  0
   -2.7368    2.2844   -5.3996 C   0  0  0  0  0  0  0  0  0  0  0  0
   -4.5893    0.8696   -4.5235 C   0  0  0  0  0  0  0  0  0  0  0  0
   -1.1840    1.3995   -2.8431 N   0  0  0  0  0  0  0  0  0  0  0  0
    0.0486    0.8019   -2.6895 C   0  0  0  0  0  0  0  0  0  0  0  0
    1.2375    1.4125   -1.9832 C   0  0  0  0  0  0  0  0  0  0  0  0
    2.5474    0.6602   -2.2805 C   0  0  0  0  0  0  0  0  0  0  0  0
    3.6800    1.2133   -1.4878 C   0  0  0  0  0  0  0  0  0  0  0  0
    3.3288    1.2835   -0.0561 N   0  0  0  0  0  0  0  0  0  0  0  0
    4.1056    0.7491    0.9317 C   0  0  0  0  0  0  0  0  0  0  0  0
    4.9995   -0.2689    0.6743 C   0  0  0  0  0  0  0  0  0  0  0  0
    5.7870   -1.1091    0.5562 C   0  0  0  0  0  0  0  0  0  0  0  0
    6.7061   -2.1414    0.2463 C   0  0  0  0  0  0  0  0  0  0  0  0
    7.9901   -1.8201    0.7718 N   0  0  0  0  0  0  0  0  0  0  0  0
    8.8525   -0.9670    0.0539 C   0  0  0  0  0  0  0  0  0  0  0  0
    8.3007   -2.0679    2.1267 C   0  0  0  0  0  0  0  0  0  0  0  0
    6.2050   -3.4627    0.7954 C   0  0  0  0  0  0  0  0  0  0  0  0
    6.7828   -2.3202   -1.2632 C   0  0  0  0  0  0  0  0  0  0  0  0
    3.9664    1.1411    2.1036 O   0  0  0  0  0  0  0  0  0  0  0  0
    2.0961    1.9378    0.2803 C   0  0  0  0  0  0  0  0  0  0  0  0
    0.9615    1.3272   -0.4864 C   0  0  0  0  0  0  0  0  0  0  0  0
    0.1820   -0.3468   -3.1529 O   0  0  0  0  0  0  0  0  0  0  0  0
   -1.4970    2.7185   -2.2535 C   0  0  0  0  0  0  0  0  0  0  0  0
   -3.0712    0.1051   -1.3237 O   0  0  0  0  0  0  0  0  0  0  0  0
   -2.4328   -3.8604   -2.0631 C   0  0  0  0  0  0  0  0  0  0  0  0
   -0.9313   -3.5791   -1.7638 C   0  0  0  0  0  0  0  0  0  0  0  0
   -0.7875   -3.5574   -0.2838 C   0  0  0  0  0  0  0  0  0  0  0  0
    0.5793   -3.3634    0.1156 N   0  0  0  0  0  0  0  0  0  0  0  0
    1.5506   -4.2864   -0.4848 C   0  0  0  0  0  0  0  0  0  0  0  0
    1.2955   -4.4505   -1.9976 C   0  0  0  0  0  0  0  0  0  0  0  0
   -0.1293   -4.6754   -2.2943 O   0  0  0  0  0  0  0  0  0  0  0  0
   -5.2734   -3.0714   -3.1907 O   0  0  0  0  0  0  0  0  0  0  0  0
   -6.9546   -3.6418   -0.9847 C   0  0  0  0  0  0  0  0  0  0  0  0
   -7.1657   -4.9237   -0.1485 C   0  0  0  0  0  0  0  0  0  0  0  0
   -6.5471   -4.8170    1.2534 C   0  0  0  0  0  0  0  0  0  0  0  0
   -4.7810   -4.8527    3.4814 O   0  0  0  0  0  0  0  0  0  0  0  0
    0.1047   -1.1517    3.0029 C   0  0  0  0  0  0  0  0  0  0  0  0
    1.3970   -1.0583    3.5159 C   0  0  0  0  0  0  0  0  0  0  0  0
    2.4579   -1.8026    2.9034 C   0  0  0  0  0  0  0  0  0  0  0  0
    2.1441   -2.5488    1.7692 C   0  0  0  0  0  0  0  0  0  0  0  0
    0.8509   -2.6132    1.2592 C   0  0  0  0  0  0  0  0  0  0  0  0
   -0.1953   -1.9107    1.8814 C   0  0  0  0  0  0  0  0  0  0  0  0
    1.4180    2.7280   -2.3755 F   0  0  0  0  0  0  0  0  0  0  0  0
  1  2  1  0  0  0  0
  2  3  1  0  0  0  0
  2  5  1  0  0  0  0
  3  4  1  0  0  0  0
  5  6  4  0  0  0  0
  5 10  4  0  0  0  0
  6  7  4  0  0  0  0
  7  8  4  0  0  0  0
  8  9  4  0  0  0  0
  9 10  4  0  0  0  0
 10 11  1  0  0  0  0
 11 12  4  0  0  0  0
 11 15  4  0  0  0  0
 12 13  1  0  0  0  0
 12 68  4  0  0  0  0
 13 14  1  0  0  0  0
 15 16  1  0  0  0  0
 15 67  4  0  0  0  0
 16 17  1  0  0  0  0
 17 18  1  0  0  0  0
 17 19  1  0  0  0  0
 17 20  1  0  0  0  0
 20 21  1  0  0  0  0
 21 22  1  0  0  0  0
 22 23  1  0  0  0  0
 22 66  2  0  0  0  0
 23 24  1  0  0  0  0
 23 65  1  0  0  0  0
 24 25  1  0  0  0  0
 25 26  1  0  0  0  0
 25 63  1  0  0  0  0
 26 27  1  0  0  0  0
 26 62  2  0  0  0  0
 27 28  1  0  0  0  0
 27 55  1  0  0  0  0
 28 29  1  0  0  0  0
 29 30  1  0  0  0  0
 29 54  2  0  0  0  0
 30 31  1  0  0  0  0
 30 34  1  0  0  0  0
 31 32  1  0  0  0  0
 31 33  1  0  0  0  0
 34 35  1  0  0  0  0
 34 53  1  0  0  0  0
 35 36  1  0  0  0  0
 35 52  2  0  0  0  0
 36 37  1  0  0  0  0
 36 51  1  0  0  0  0
 36 73  1  0  0  0  0
 37 38  1  0  0  0  0
 38 39  1  0  0  0  0
 39 40  1  0  0  0  0
 39 50  1  0  0  0  0
 40 41  1  0  0  0  0
 40 49  2  0  0  0  0
 41 42  1  0  0  0  0
 42 43  1  0  0  0  0
 43 44  1  0  0  0  0
 43 47  1  0  0  0  0
 43 48  1  0  0  0  0
 44 45  1  0  0  0  0
 44 46  1  0  0  0  0
 50 51  1  0  0  0  0
 55 56  1  0  0  0  0
 56 57  1  0  0  0  0
 56 61  1  0  0  0  0
 57 58  1  0  0  0  0
 58 59  1  0  0  0  0
 58 71  1  0  0  0  0
 59 60  1  0  0  0  0
 60 61  1  0  0  0  0
 63 64  1  0  0  0  0
 64 65  1  0  0  0  0
 67 68  4  0  0  0  0
 67 72  4  0  0  0  0
 68 69  4  0  0  0  0
 69 70  4  0  0  0  0
 70 71  4  0  0  0  0
 71 72  4  0  0  0  0
M  END
$$$$
