mol_ETKDG1_76
  PyMOL3.1          3D                             0

 73 79  0  0  0  0  0  0  0  0999 V2000
    0.6834    6.3881    7.0683 C   0  0  0  0  0  0  0  0  0  0  0  0
    1.0139    4.9497    6.9486 C   0  0  0  0  0  0  0  0  0  0  0  0
    2.3663    4.6156    7.1654 O   0  0  0  0  0  0  0  0  0  0  0  0
    3.2970    5.0161    6.1811 C   0  0  0  0  0  0  0  0  0  0  0  0
    0.2184    4.1146    7.8622 C   0  0  0  0  0  0  0  0  0  0  0  0
    0.5329    4.1427    9.1461 N   0  0  0  0  0  0  0  0  0  0  0  0
   -0.1862    3.4585   10.0528 C   0  0  0  0  0  0  0  0  0  0  0  0
   -1.2933    2.6958    9.6772 C   0  0  0  0  0  0  0  0  0  0  0  0
   -1.6457    2.6581    8.3232 C   0  0  0  0  0  0  0  0  0  0  0  0
   -0.8572    3.3536    7.4091 C   0  0  0  0  0  0  0  0  0  0  0  0
   -1.1766    3.2599    6.0075 C   0  0  0  0  0  0  0  0  0  0  0  0
   -2.0734    4.0723    5.3943 N   0  0  0  0  0  0  0  0  0  0  0  0
   -2.8647    5.1982    5.9987 C   0  0  0  0  0  0  0  0  0  0  0  0
   -4.2753    4.8776    6.1943 C   0  0  0  0  0  0  0  0  0  0  0  0
   -0.5559    2.3958    5.0656 C   0  0  0  0  0  0  0  0  0  0  0  0
    0.5498    1.3815    5.2180 C   0  0  0  0  0  0  0  0  0  0  0  0
    0.0940   -0.0886    5.6184 C   0  0  0  0  0  0  0  0  0  0  0  0
    1.3495   -0.9359    5.7320 C   0  0  0  0  0  0  0  0  0  0  0  0
   -0.5121   -0.1464    6.9753 C   0  0  0  0  0  0  0  0  0  0  0  0
   -0.8560   -0.7052    4.6096 C   0  0  0  0  0  0  0  0  0  0  0  0
   -0.2044   -1.3725    3.4274 O   0  0  0  0  0  0  0  0  0  0  0  0
   -0.6222   -2.6128    2.8641 C   0  0  0  0  0  0  0  0  0  0  0  0
    0.1290   -3.1382    1.6509 C   0  0  0  0  0  0  0  0  0  0  0  0
    1.3528   -2.4159    1.4993 N   0  0  0  0  0  0  0  0  0  0  0  0
    2.2007   -2.7880    0.4696 N   0  0  0  0  0  0  0  0  0  0  0  0
    2.6314   -1.8716   -0.4402 C   0  0  0  0  0  0  0  0  0  0  0  0
    2.1351   -0.4590   -0.3279 C   0  0  0  0  0  0  0  0  0  0  0  0
    3.1864    0.4896   -0.6041 N   0  0  0  0  0  0  0  0  0  0  0  0
    3.8142    1.1708    0.3636 C   0  0  0  0  0  0  0  0  0  0  0  0
    4.7587    2.2293   -0.1021 C   0  0  0  0  0  0  0  0  0  0  0  0
    6.2621    1.8218    0.0264 C   0  0  0  0  0  0  0  0  0  0  0  0
    7.1663    2.6902   -0.7796 C   0  0  0  0  0  0  0  0  0  0  0  0
    6.5133    0.3664   -0.1912 C   0  0  0  0  0  0  0  0  0  0  0  0
    4.4303    3.4202    0.6862 N   0  0  0  0  0  0  0  0  0  0  0  0
    3.3873    4.2228    0.2705 C   0  0  0  0  0  0  0  0  0  0  0  0
    2.8556    5.4040    1.0484 C   0  0  0  0  0  0  0  0  0  0  0  0
    1.9648    4.8476    2.1247 C   0  0  0  0  0  0  0  0  0  0  0  0
    1.4533    5.9345    3.0012 C   0  0  0  0  0  0  0  0  0  0  0  0
    0.7278    6.9068    2.2016 N   0  0  0  0  0  0  0  0  0  0  0  0
   -0.5354    7.2485    2.6014 C   0  0  0  0  0  0  0  0  0  0  0  0
   -1.5148    7.6884    1.7352 C   0  0  0  0  0  0  0  0  0  0  0  0
   -2.4133    8.1039    1.1457 C   0  0  0  0  0  0  0  0  0  0  0  0
   -3.3262    8.5976    0.2034 C   0  0  0  0  0  0  0  0  0  0  0  0
   -2.9905    9.9500   -0.0901 N   0  0  0  0  0  0  0  0  0  0  0  0
   -3.5919   11.0105    0.6142 C   0  0  0  0  0  0  0  0  0  0  0  0
   -1.7967   10.2335   -0.7907 C   0  0  0  0  0  0  0  0  0  0  0  0
   -4.7422    8.5034    0.7297 C   0  0  0  0  0  0  0  0  0  0  0  0
   -3.2913    7.7563   -1.0612 C   0  0  0  0  0  0  0  0  0  0  0  0
   -0.8547    7.1207    3.7817 O   0  0  0  0  0  0  0  0  0  0  0  0
    1.4081    7.4401    1.0426 C   0  0  0  0  0  0  0  0  0  0  0  0
    2.0330    6.3794    0.1931 C   0  0  0  0  0  0  0  0  0  0  0  0
    2.8196    3.9278   -0.7968 O   0  0  0  0  0  0  0  0  0  0  0  0
    5.1340    3.6425    1.9604 C   0  0  0  0  0  0  0  0  0  0  0  0
    3.5244    1.0015    1.5329 O   0  0  0  0  0  0  0  0  0  0  0  0
    0.9391   -0.2137   -1.3330 C   0  0  0  0  0  0  0  0  0  0  0  0
    0.2649    1.1822   -1.1893 C   0  0  0  0  0  0  0  0  0  0  0  0
   -0.5734    1.1424    0.0405 C   0  0  0  0  0  0  0  0  0  0  0  0
   -1.3377    2.3505    0.2145 N   0  0  0  0  0  0  0  0  0  0  0  0
   -2.1398    2.7492   -0.9477 C   0  0  0  0  0  0  0  0  0  0  0  0
   -1.3065    2.6653   -2.2329 C   0  0  0  0  0  0  0  0  0  0  0  0
   -0.6035    1.3775   -2.3418 O   0  0  0  0  0  0  0  0  0  0  0  0
    3.3871   -2.1818   -1.3742 O   0  0  0  0  0  0  0  0  0  0  0  0
    2.6416   -4.1838    0.4741 C   0  0  0  0  0  0  0  0  0  0  0  0
    1.4072   -5.0969    0.6165 C   0  0  0  0  0  0  0  0  0  0  0  0
    0.4804   -4.6554    1.7571 C   0  0  0  0  0  0  0  0  0  0  0  0
   -1.5615   -3.2982    3.2970 O   0  0  0  0  0  0  0  0  0  0  0  0
   -1.1717    2.7386    3.8510 C   0  0  0  0  0  0  0  0  0  0  0  0
   -2.0940    3.7558    4.0959 C   0  0  0  0  0  0  0  0  0  0  0  0
   -2.8403    4.3019    3.0023 C   0  0  0  0  0  0  0  0  0  0  0  0
   -2.5661    3.8046    1.7274 C   0  0  0  0  0  0  0  0  0  0  0  0
   -1.6178    2.8039    1.5056 C   0  0  0  0  0  0  0  0  0  0  0  0
   -0.9133    2.2457    2.5820 C   0  0  0  0  0  0  0  0  0  0  0  0
    3.8895    6.1541    1.5611 F   0  0  0  0  0  0  0  0  0  0  0  0
  1  2  1  0  0  0  0
  2  3  1  0  0  0  0
  2  5  1  0  0  0  0
  3  4  1  0  0  0  0
  5  6  4  0  0  0  0
  5 10  4  0  0  0  0
  6  7  4  0  0  0  0
  7  8  4  0  0  0  0
  8  9  4  0  0  0  0
  9 10  4  0  0  0  0
 10 11  1  0  0  0  0
 11 12  4  0  0  0  0
 11 15  4  0  0  0  0
 12 13  1  0  0  0  0
 12 68  4  0  0  0  0
 13 14  1  0  0  0  0
 15 16  1  0  0  0  0
 15 67  4  0  0  0  0
 16 17  1  0  0  0  0
 17 18  1  0  0  0  0
 17 19  1  0  0  0  0
 17 20  1  0  0  0  0
 20 21  1  0  0  0  0
 21 22  1  0  0  0  0
 22 23  1  0  0  0  0
 22 66  2  0  0  0  0
 23 24  1  0  0  0  0
 23 65  1  0  0  0  0
 24 25  1  0  0  0  0
 25 26  1  0  0  0  0
 25 63  1  0  0  0  0
 26 27  1  0  0  0  0
 26 62  2  0  0  0  0
 27 28  1  0  0  0  0
 27 55  1  0  0  0  0
 28 29  1  0  0  0  0
 29 30  1  0  0  0  0
 29 54  2  0  0  0  0
 30 31  1  0  0  0  0
 30 34  1  0  0  0  0
 31 32  1  0  0  0  0
 31 33  1  0  0  0  0
 34 35  1  0  0  0  0
 34 53  1  0  0  0  0
 35 36  1  0  0  0  0
 35 52  2  0  0  0  0
 36 37  1  0  0  0  0
 36 51  1  0  0  0  0
 36 73  1  0  0  0  0
 37 38  1  0  0  0  0
 38 39  1  0  0  0  0
 39 40  1  0  0  0  0
 39 50  1  0  0  0  0
 40 41  1  0  0  0  0
 40 49  2  0  0  0  0
 41 42  1  0  0  0  0
 42 43  1  0  0  0  0
 43 44  1  0  0  0  0
 43 47  1  0  0  0  0
 43 48  1  0  0  0  0
 44 45  1  0  0  0  0
 44 46  1  0  0  0  0
 50 51  1  0  0  0  0
 55 56  1  0  0  0  0
 56 57  1  0  0  0  0
 56 61  1  0  0  0  0
 57 58  1  0  0  0  0
 58 59  1  0  0  0  0
 58 71  1  0  0  0  0
 59 60  1  0  0  0  0
 60 61  1  0  0  0  0
 63 64  1  0  0  0  0
 64 65  1  0  0  0  0
 67 68  4  0  0  0  0
 67 72  4  0  0  0  0
 68 69  4  0  0  0  0
 69 70  4  0  0  0  0
 70 71  4  0  0  0  0
 71 72  4  0  0  0  0
M  END
$$$$
