mol_ETKDG3_167
  PyMOL3.1          3D                             0

 73 79  0  0  0  0  0  0  0  0999 V2000
   -3.1511   -0.0812    4.9925 C   0  0  0  0  0  0  0  0  0  0  0  0
   -3.7665   -0.5776    3.7430 C   0  0  0  0  0  0  0  0  0  0  0  0
   -4.9469    0.0847    3.3391 O   0  0  0  0  0  0  0  0  0  0  0  0
   -4.7886    1.3723    2.7906 C   0  0  0  0  0  0  0  0  0  0  0  0
   -4.0781   -2.0217    3.8002 C   0  0  0  0  0  0  0  0  0  0  0  0
   -5.1060   -2.4114    4.5352 N   0  0  0  0  0  0  0  0  0  0  0  0
   -5.3990   -3.7169    4.6944 C   0  0  0  0  0  0  0  0  0  0  0  0
   -4.6262   -4.7181    4.0943 C   0  0  0  0  0  0  0  0  0  0  0  0
   -3.5283   -4.3279    3.3154 C   0  0  0  0  0  0  0  0  0  0  0  0
   -3.2797   -2.9567    3.1491 C   0  0  0  0  0  0  0  0  0  0  0  0
   -2.1932   -2.5529    2.2940 C   0  0  0  0  0  0  0  0  0  0  0  0
   -0.9065   -2.4512    2.7149 N   0  0  0  0  0  0  0  0  0  0  0  0
   -0.3579   -2.6922    4.0959 C   0  0  0  0  0  0  0  0  0  0  0  0
    0.3137   -3.9917    4.2200 C   0  0  0  0  0  0  0  0  0  0  0  0
   -2.3263   -2.1268    0.9424 C   0  0  0  0  0  0  0  0  0  0  0  0
   -3.5356   -1.9526    0.0506 C   0  0  0  0  0  0  0  0  0  0  0  0
   -4.0013   -3.2456   -0.7595 C   0  0  0  0  0  0  0  0  0  0  0  0
   -4.6007   -4.2985    0.1475 C   0  0  0  0  0  0  0  0  0  0  0  0
   -5.1342   -2.8233   -1.6514 C   0  0  0  0  0  0  0  0  0  0  0  0
   -2.8903   -3.8938   -1.6051 C   0  0  0  0  0  0  0  0  0  0  0  0
   -2.7650   -3.3621   -3.0120 O   0  0  0  0  0  0  0  0  0  0  0  0
   -2.6892   -4.1740   -4.1857 C   0  0  0  0  0  0  0  0  0  0  0  0
   -2.5202   -3.4780   -5.5316 C   0  0  0  0  0  0  0  0  0  0  0  0
   -2.9729   -2.1310   -5.4269 N   0  0  0  0  0  0  0  0  0  0  0  0
   -2.9398   -1.3306   -6.5592 N   0  0  0  0  0  0  0  0  0  0  0  0
   -2.3277   -0.1189   -6.5311 C   0  0  0  0  0  0  0  0  0  0  0  0
   -1.6561    0.3095   -5.2671 C   0  0  0  0  0  0  0  0  0  0  0  0
   -1.9520    1.6915   -4.9514 N   0  0  0  0  0  0  0  0  0  0  0  0
   -2.8040    2.0515   -3.9677 C   0  0  0  0  0  0  0  0  0  0  0  0
   -2.8821    3.5129   -3.6963 C   0  0  0  0  0  0  0  0  0  0  0  0
   -4.2157    4.1505   -4.2058 C   0  0  0  0  0  0  0  0  0  0  0  0
   -4.2034    5.6388   -4.1497 C   0  0  0  0  0  0  0  0  0  0  0  0
   -4.6239    3.6318   -5.5473 C   0  0  0  0  0  0  0  0  0  0  0  0
   -2.6822    3.6819   -2.2463 N   0  0  0  0  0  0  0  0  0  0  0  0
   -1.3989    3.6674   -1.7518 C   0  0  0  0  0  0  0  0  0  0  0  0
   -1.0333    3.7522   -0.2873 C   0  0  0  0  0  0  0  0  0  0  0  0
    0.4647    4.0165   -0.0755 C   0  0  0  0  0  0  0  0  0  0  0  0
    0.8407    3.9435    1.3661 C   0  0  0  0  0  0  0  0  0  0  0  0
    0.3405    2.6969    1.9748 N   0  0  0  0  0  0  0  0  0  0  0  0
    1.1247    1.8116    2.6618 C   0  0  0  0  0  0  0  0  0  0  0  0
    2.4788    1.6950    2.4372 C   0  0  0  0  0  0  0  0  0  0  0  0
    3.6122    1.4949    2.3286 C   0  0  0  0  0  0  0  0  0  0  0  0
    4.9824    1.3877    2.0498 C   0  0  0  0  0  0  0  0  0  0  0  0
    5.6189    0.2838    2.6741 N   0  0  0  0  0  0  0  0  0  0  0  0
    7.0131    0.2519    2.8236 C   0  0  0  0  0  0  0  0  0  0  0  0
    4.9503   -0.9445    2.8223 C   0  0  0  0  0  0  0  0  0  0  0  0
    5.6257    2.6794    2.5032 C   0  0  0  0  0  0  0  0  0  0  0  0
    5.1847    1.2645    0.5358 C   0  0  0  0  0  0  0  0  0  0  0  0
    0.6008    1.0359    3.4759 O   0  0  0  0  0  0  0  0  0  0  0  0
   -1.0452    2.4064    1.7899 C   0  0  0  0  0  0  0  0  0  0  0  0
   -1.3750    2.4054    0.3334 C   0  0  0  0  0  0  0  0  0  0  0  0
   -0.4734    3.5507   -2.5711 O   0  0  0  0  0  0  0  0  0  0  0  0
   -3.8614    3.7293   -1.3681 C   0  0  0  0  0  0  0  0  0  0  0  0
   -3.3672    1.2153   -3.2768 O   0  0  0  0  0  0  0  0  0  0  0  0
   -0.1022    0.1081   -5.3850 C   0  0  0  0  0  0  0  0  0  0  0  0
    0.7010    0.4468   -4.1051 C   0  0  0  0  0  0  0  0  0  0  0  0
    0.4668   -0.6367   -3.1212 C   0  0  0  0  0  0  0  0  0  0  0  0
    1.2673   -0.4716   -1.9338 N   0  0  0  0  0  0  0  0  0  0  0  0
    2.7016   -0.2747   -2.1672 C   0  0  0  0  0  0  0  0  0  0  0  0
    2.9321    0.7672   -3.2684 C   0  0  0  0  0  0  0  0  0  0  0  0
    2.1089    0.4916   -4.4537 O   0  0  0  0  0  0  0  0  0  0  0  0
   -2.2862    0.6202   -7.5299 O   0  0  0  0  0  0  0  0  0  0  0  0
   -3.6613   -1.8413   -7.7234 C   0  0  0  0  0  0  0  0  0  0  0  0
   -3.2643   -3.3093   -7.9670 C   0  0  0  0  0  0  0  0  0  0  0  0
   -3.3177   -4.1566   -6.6858 C   0  0  0  0  0  0  0  0  0  0  0  0
   -2.7426   -5.4164   -4.1708 O   0  0  0  0  0  0  0  0  0  0  0  0
   -1.0145   -1.7957    0.5822 C   0  0  0  0  0  0  0  0  0  0  0  0
   -0.1794   -2.0144    1.6841 C   0  0  0  0  0  0  0  0  0  0  0  0
    1.2141   -1.7371    1.5680 C   0  0  0  0  0  0  0  0  0  0  0  0
    1.6563   -1.2168    0.3470 C   0  0  0  0  0  0  0  0  0  0  0  0
    0.7952   -0.9914   -0.7304 C   0  0  0  0  0  0  0  0  0  0  0  0
   -0.5659   -1.2740   -0.6154 C   0  0  0  0  0  0  0  0  0  0  0  0
   -1.7277    4.7711    0.3386 F   0  0  0  0  0  0  0  0  0  0  0  0
  1  2  1  0  0  0  0
  2  3  1  0  0  0  0
  2  5  1  0  0  0  0
  3  4  1  0  0  0  0
  5  6  4  0  0  0  0
  5 10  4  0  0  0  0
  6  7  4  0  0  0  0
  7  8  4  0  0  0  0
  8  9  4  0  0  0  0
  9 10  4  0  0  0  0
 10 11  1  0  0  0  0
 11 12  4  0  0  0  0
 11 15  4  0  0  0  0
 12 13  1  0  0  0  0
 12 68  4  0  0  0  0
 13 14  1  0  0  0  0
 15 16  1  0  0  0  0
 15 67  4  0  0  0  0
 16 17  1  0  0  0  0
 17 18  1  0  0  0  0
 17 19  1  0  0  0  0
 17 20  1  0  0  0  0
 20 21  1  0  0  0  0
 21 22  1  0  0  0  0
 22 23  1  0  0  0  0
 22 66  2  0  0  0  0
 23 24  1  0  0  0  0
 23 65  1  0  0  0  0
 24 25  1  0  0  0  0
 25 26  1  0  0  0  0
 25 63  1  0  0  0  0
 26 27  1  0  0  0  0
 26 62  2  0  0  0  0
 27 28  1  0  0  0  0
 27 55  1  0  0  0  0
 28 29  1  0  0  0  0
 29 30  1  0  0  0  0
 29 54  2  0  0  0  0
 30 31  1  0  0  0  0
 30 34  1  0  0  0  0
 31 32  1  0  0  0  0
 31 33  1  0  0  0  0
 34 35  1  0  0  0  0
 34 53  1  0  0  0  0
 35 36  1  0  0  0  0
 35 52  2  0  0  0  0
 36 37  1  0  0  0  0
 36 51  1  0  0  0  0
 36 73  1  0  0  0  0
 37 38  1  0  0  0  0
 38 39  1  0  0  0  0
 39 40  1  0  0  0  0
 39 50  1  0  0  0  0
 40 41  1  0  0  0  0
 40 49  2  0  0  0  0
 41 42  1  0  0  0  0
 42 43  1  0  0  0  0
 43 44  1  0  0  0  0
 43 47  1  0  0  0  0
 43 48  1  0  0  0  0
 44 45  1  0  0  0  0
 44 46  1  0  0  0  0
 50 51  1  0  0  0  0
 55 56  1  0  0  0  0
 56 57  1  0  0  0  0
 56 61  1  0  0  0  0
 57 58  1  0  0  0  0
 58 59  1  0  0  0  0
 58 71  1  0  0  0  0
 59 60  1  0  0  0  0
 60 61  1  0  0  0  0
 63 64  1  0  0  0  0
 64 65  1  0  0  0  0
 67 68  4  0  0  0  0
 67 72  4  0  0  0  0
 68 69  4  0  0  0  0
 69 70  4  0  0  0  0
 70 71  4  0  0  0  0
 71 72  4  0  0  0  0
M  END
$$$$
