mol_ETKDG4_208
  PyMOL3.1          3D                             0

 73 79  0  0  0  0  0  0  0  0999 V2000
    0.7429   -5.7373    1.6082 C   0  0  0  0  0  0  0  0  0  0  0  0
    0.5912   -5.2700    0.2050 C   0  0  0  0  0  0  0  0  0  0  0  0
    1.7584   -5.3275   -0.5787 O   0  0  0  0  0  0  0  0  0  0  0  0
    2.7662   -4.3818   -0.3175 C   0  0  0  0  0  0  0  0  0  0  0  0
   -0.4615   -6.0053   -0.5189 C   0  0  0  0  0  0  0  0  0  0  0  0
   -0.2188   -7.2593   -0.8523 N   0  0  0  0  0  0  0  0  0  0  0  0
   -1.1628   -8.0241   -1.4422 C   0  0  0  0  0  0  0  0  0  0  0  0
   -2.4396   -7.5262   -1.7218 C   0  0  0  0  0  0  0  0  0  0  0  0
   -2.7196   -6.1990   -1.3701 C   0  0  0  0  0  0  0  0  0  0  0  0
   -1.6977   -5.4285   -0.7969 C   0  0  0  0  0  0  0  0  0  0  0  0
   -1.9706   -4.0429   -0.5016 C   0  0  0  0  0  0  0  0  0  0  0  0
   -2.6530   -3.6353    0.5974 N   0  0  0  0  0  0  0  0  0  0  0  0
   -3.1948   -4.4919    1.7052 C   0  0  0  0  0  0  0  0  0  0  0  0
   -4.6512   -4.6231    1.6783 C   0  0  0  0  0  0  0  0  0  0  0  0
   -1.5256   -2.9234   -1.2656 C   0  0  0  0  0  0  0  0  0  0  0  0
   -0.6390   -2.8438   -2.4893 C   0  0  0  0  0  0  0  0  0  0  0  0
   -1.3743   -2.9550   -3.8971 C   0  0  0  0  0  0  0  0  0  0  0  0
   -0.3015   -3.1930   -4.9588 C   0  0  0  0  0  0  0  0  0  0  0  0
   -2.2795   -4.1217   -3.9842 C   0  0  0  0  0  0  0  0  0  0  0  0
   -2.1754   -1.7268   -4.2286 C   0  0  0  0  0  0  0  0  0  0  0  0
   -1.4645   -0.5283   -4.7699 O   0  0  0  0  0  0  0  0  0  0  0  0
   -2.0014    0.3120   -5.8016 C   0  0  0  0  0  0  0  0  0  0  0  0
   -1.2580    1.5721   -6.1686 C   0  0  0  0  0  0  0  0  0  0  0  0
   -0.0450    1.6763   -5.4259 N   0  0  0  0  0  0  0  0  0  0  0  0
    0.7396    2.8014   -5.6576 N   0  0  0  0  0  0  0  0  0  0  0  0
    1.1385    3.6019   -4.6240 C   0  0  0  0  0  0  0  0  0  0  0  0
    0.7643    3.2200   -3.2231 C   0  0  0  0  0  0  0  0  0  0  0  0
    1.8244    3.5012   -2.2875 N   0  0  0  0  0  0  0  0  0  0  0  0
    2.6527    2.5574   -1.8270 C   0  0  0  0  0  0  0  0  0  0  0  0
    3.5821    2.9739   -0.7368 C   0  0  0  0  0  0  0  0  0  0  0  0
    5.0451    3.2668   -1.1947 C   0  0  0  0  0  0  0  0  0  0  0  0
    5.8107    4.0806   -0.1955 C   0  0  0  0  0  0  0  0  0  0  0  0
    5.1614    3.7841   -2.5884 C   0  0  0  0  0  0  0  0  0  0  0  0
    3.5120    1.9204    0.2776 N   0  0  0  0  0  0  0  0  0  0  0  0
    2.4562    1.9377    1.1675 C   0  0  0  0  0  0  0  0  0  0  0  0
    2.2021    0.8745    2.2101 C   0  0  0  0  0  0  0  0  0  0  0  0
    1.6931   -0.3512    1.4898 C   0  0  0  0  0  0  0  0  0  0  0  0
    1.4777   -1.4739    2.4301 C   0  0  0  0  0  0  0  0  0  0  0  0
    0.5775   -1.0729    3.5142 N   0  0  0  0  0  0  0  0  0  0  0  0
   -0.4737   -1.8861    3.8561 C   0  0  0  0  0  0  0  0  0  0  0  0
   -1.4203   -1.5138    4.8067 C   0  0  0  0  0  0  0  0  0  0  0  0
   -2.2394   -1.3799    5.6308 C   0  0  0  0  0  0  0  0  0  0  0  0
   -3.1182   -1.0496    6.6666 C   0  0  0  0  0  0  0  0  0  0  0  0
   -2.5937   -1.5489    7.8995 N   0  0  0  0  0  0  0  0  0  0  0  0
   -1.9060   -0.7133    8.7950 C   0  0  0  0  0  0  0  0  0  0  0  0
   -2.6430   -2.9282    8.1993 C   0  0  0  0  0  0  0  0  0  0  0  0
   -4.5005   -1.6417    6.4302 C   0  0  0  0  0  0  0  0  0  0  0  0
   -3.3127    0.4569    6.7152 C   0  0  0  0  0  0  0  0  0  0  0  0
   -0.6156   -2.9830    3.3057 O   0  0  0  0  0  0  0  0  0  0  0  0
    0.8645    0.1705    4.1841 C   0  0  0  0  0  0  0  0  0  0  0  0
    1.1407    1.2833    3.2517 C   0  0  0  0  0  0  0  0  0  0  0  0
    1.6518    2.8835    1.0848 O   0  0  0  0  0  0  0  0  0  0  0  0
    4.4862    0.8164    0.2328 C   0  0  0  0  0  0  0  0  0  0  0  0
    2.5364    1.3970   -2.2025 O   0  0  0  0  0  0  0  0  0  0  0  0
   -0.5441    3.9719   -2.7547 C   0  0  0  0  0  0  0  0  0  0  0  0
   -1.0391    3.5668   -1.3345 C   0  0  0  0  0  0  0  0  0  0  0  0
   -1.7016    2.2385   -1.4412 C   0  0  0  0  0  0  0  0  0  0  0  0
   -2.3019    1.8213   -0.1935 N   0  0  0  0  0  0  0  0  0  0  0  0
   -3.1935    2.8144    0.4241 C   0  0  0  0  0  0  0  0  0  0  0  0
   -2.5436    4.2096    0.4250 C   0  0  0  0  0  0  0  0  0  0  0  0
   -2.0034    4.5588   -0.8986 O   0  0  0  0  0  0  0  0  0  0  0  0
    1.7795    4.6485   -4.8247 O   0  0  0  0  0  0  0  0  0  0  0  0
    1.1507    3.0206   -7.0418 C   0  0  0  0  0  0  0  0  0  0  0  0
   -0.0741    2.9204   -7.9722 C   0  0  0  0  0  0  0  0  0  0  0  0
   -0.9303    1.6821   -7.6823 C   0  0  0  0  0  0  0  0  0  0  0  0
   -3.0433    0.0778   -6.4506 O   0  0  0  0  0  0  0  0  0  0  0  0
   -2.0361   -1.8216   -0.5564 C   0  0  0  0  0  0  0  0  0  0  0  0
   -2.7129   -2.2942    0.5713 C   0  0  0  0  0  0  0  0  0  0  0  0
   -3.2993   -1.3552    1.4834 C   0  0  0  0  0  0  0  0  0  0  0  0
   -3.1330    0.0033    1.2033 C   0  0  0  0  0  0  0  0  0  0  0  0
   -2.4494    0.4531    0.0641 C   0  0  0  0  0  0  0  0  0  0  0  0
   -1.8796   -0.4724   -0.8228 C   0  0  0  0  0  0  0  0  0  0  0  0
    3.3534    0.6184    2.9301 F   0  0  0  0  0  0  0  0  0  0  0  0
  1  2  1  0  0  0  0
  2  3  1  0  0  0  0
  2  5  1  0  0  0  0
  3  4  1  0  0  0  0
  5  6  4  0  0  0  0
  5 10  4  0  0  0  0
  6  7  4  0  0  0  0
  7  8  4  0  0  0  0
  8  9  4  0  0  0  0
  9 10  4  0  0  0  0
 10 11  1  0  0  0  0
 11 12  4  0  0  0  0
 11 15  4  0  0  0  0
 12 13  1  0  0  0  0
 12 68  4  0  0  0  0
 13 14  1  0  0  0  0
 15 16  1  0  0  0  0
 15 67  4  0  0  0  0
 16 17  1  0  0  0  0
 17 18  1  0  0  0  0
 17 19  1  0  0  0  0
 17 20  1  0  0  0  0
 20 21  1  0  0  0  0
 21 22  1  0  0  0  0
 22 23  1  0  0  0  0
 22 66  2  0  0  0  0
 23 24  1  0  0  0  0
 23 65  1  0  0  0  0
 24 25  1  0  0  0  0
 25 26  1  0  0  0  0
 25 63  1  0  0  0  0
 26 27  1  0  0  0  0
 26 62  2  0  0  0  0
 27 28  1  0  0  0  0
 27 55  1  0  0  0  0
 28 29  1  0  0  0  0
 29 30  1  0  0  0  0
 29 54  2  0  0  0  0
 30 31  1  0  0  0  0
 30 34  1  0  0  0  0
 31 32  1  0  0  0  0
 31 33  1  0  0  0  0
 34 35  1  0  0  0  0
 34 53  1  0  0  0  0
 35 36  1  0  0  0  0
 35 52  2  0  0  0  0
 36 37  1  0  0  0  0
 36 51  1  0  0  0  0
 36 73  1  0  0  0  0
 37 38  1  0  0  0  0
 38 39  1  0  0  0  0
 39 40  1  0  0  0  0
 39 50  1  0  0  0  0
 40 41  1  0  0  0  0
 40 49  2  0  0  0  0
 41 42  1  0  0  0  0
 42 43  1  0  0  0  0
 43 44  1  0  0  0  0
 43 47  1  0  0  0  0
 43 48  1  0  0  0  0
 44 45  1  0  0  0  0
 44 46  1  0  0  0  0
 50 51  1  0  0  0  0
 55 56  1  0  0  0  0
 56 57  1  0  0  0  0
 56 61  1  0  0  0  0
 57 58  1  0  0  0  0
 58 59  1  0  0  0  0
 58 71  1  0  0  0  0
 59 60  1  0  0  0  0
 60 61  1  0  0  0  0
 63 64  1  0  0  0  0
 64 65  1  0  0  0  0
 67 68  4  0  0  0  0
 67 72  4  0  0  0  0
 68 69  4  0  0  0  0
 69 70  4  0  0  0  0
 70 71  4  0  0  0  0
 71 72  4  0  0  0  0
M  END
$$$$
