mol_ETKDG0_312
  PyMOL3.1          3D                             0

 73 79  0  0  0  0  0  0  0  0999 V2000
    1.0348   -3.7579    5.7215 C   0  0  0  0  0  0  0  0  0  0  0  0
   -0.0844   -3.0113    5.0902 C   0  0  0  0  0  0  0  0  0  0  0  0
   -1.0929   -3.8398    4.5147 O   0  0  0  0  0  0  0  0  0  0  0  0
   -0.8037   -4.4064    3.2600 C   0  0  0  0  0  0  0  0  0  0  0  0
   -0.7663   -2.1076    6.0394 C   0  0  0  0  0  0  0  0  0  0  0  0
   -1.5769   -2.6598    6.9286 N   0  0  0  0  0  0  0  0  0  0  0  0
   -2.2097   -1.9145    7.8642 C   0  0  0  0  0  0  0  0  0  0  0  0
   -2.0233   -0.5296    7.9466 C   0  0  0  0  0  0  0  0  0  0  0  0
   -1.1622    0.0745    7.0212 C   0  0  0  0  0  0  0  0  0  0  0  0
   -0.5513   -0.7240    6.0403 C   0  0  0  0  0  0  0  0  0  0  0  0
    0.3041   -0.0835    5.0677 C   0  0  0  0  0  0  0  0  0  0  0  0
    1.5934    0.2535    5.3239 N   0  0  0  0  0  0  0  0  0  0  0  0
    2.3653    0.0179    6.5948 C   0  0  0  0  0  0  0  0  0  0  0  0
    2.4805    1.2299    7.4187 C   0  0  0  0  0  0  0  0  0  0  0  0
   -0.0275    0.2212    3.7159 C   0  0  0  0  0  0  0  0  0  0  0  0
   -1.2866   -0.0360    2.9200 C   0  0  0  0  0  0  0  0  0  0  0  0
   -2.4073    1.0915    3.0208 C   0  0  0  0  0  0  0  0  0  0  0  0
   -3.5621    0.6576    2.1317 C   0  0  0  0  0  0  0  0  0  0  0  0
   -2.9972    1.1719    4.3901 C   0  0  0  0  0  0  0  0  0  0  0  0
   -1.9196    2.4755    2.5981 C   0  0  0  0  0  0  0  0  0  0  0  0
   -1.9682    2.7418    1.1127 O   0  0  0  0  0  0  0  0  0  0  0  0
   -2.4124    3.9572    0.5148 C   0  0  0  0  0  0  0  0  0  0  0  0
   -2.4058    4.0792   -1.0049 C   0  0  0  0  0  0  0  0  0  0  0  0
   -2.1933    2.7909   -1.6105 N   0  0  0  0  0  0  0  0  0  0  0  0
   -2.2078    2.7101   -3.0053 N   0  0  0  0  0  0  0  0  0  0  0  0
   -1.1756    2.1350   -3.6977 C   0  0  0  0  0  0  0  0  0  0  0  0
   -0.0104    1.5965   -2.9264 C   0  0  0  0  0  0  0  0  0  0  0  0
    0.4915    0.3497   -3.4806 N   0  0  0  0  0  0  0  0  0  0  0  0
    0.2453   -0.8493   -2.9170 C   0  0  0  0  0  0  0  0  0  0  0  0
    0.9872   -2.0127   -3.4918 C   0  0  0  0  0  0  0  0  0  0  0  0
    0.1304   -2.9249   -4.4315 C   0  0  0  0  0  0  0  0  0  0  0  0
    0.9556   -3.9655   -5.1260 C   0  0  0  0  0  0  0  0  0  0  0  0
   -0.7199   -2.1466   -5.3914 C   0  0  0  0  0  0  0  0  0  0  0  0
    1.5471   -2.7433   -2.3474 N   0  0  0  0  0  0  0  0  0  0  0  0
    2.7295   -2.2888   -1.7927 C   0  0  0  0  0  0  0  0  0  0  0  0
    3.3969   -2.8743   -0.5717 C   0  0  0  0  0  0  0  0  0  0  0  0
    4.8418   -2.3838   -0.3913 C   0  0  0  0  0  0  0  0  0  0  0  0
    5.4263   -2.8741    0.8950 C   0  0  0  0  0  0  0  0  0  0  0  0
    4.5239   -2.5833    2.0280 N   0  0  0  0  0  0  0  0  0  0  0  0
    4.9354   -1.9572    3.1728 C   0  0  0  0  0  0  0  0  0  0  0  0
    6.1132   -1.2297    3.2305 C   0  0  0  0  0  0  0  0  0  0  0  0
    7.0756   -0.6076    3.4238 C   0  0  0  0  0  0  0  0  0  0  0  0
    8.2769    0.1270    3.4709 C   0  0  0  0  0  0  0  0  0  0  0  0
    8.3803    0.8516    4.6854 N   0  0  0  0  0  0  0  0  0  0  0  0
    8.5177    2.2462    4.7261 C   0  0  0  0  0  0  0  0  0  0  0  0
    8.3406    0.1726    5.9300 C   0  0  0  0  0  0  0  0  0  0  0  0
    8.3307    1.0498    2.2676 C   0  0  0  0  0  0  0  0  0  0  0  0
    9.4732   -0.8127    3.3370 C   0  0  0  0  0  0  0  0  0  0  0  0
    4.2227   -2.0068    4.1907 O   0  0  0  0  0  0  0  0  0  0  0  0
    3.1498   -2.9781    1.8901 C   0  0  0  0  0  0  0  0  0  0  0  0
    2.5740   -2.4251    0.6327 C   0  0  0  0  0  0  0  0  0  0  0  0
    3.2731   -1.2977   -2.3260 O   0  0  0  0  0  0  0  0  0  0  0  0
    0.7704   -3.8531   -1.7589 C   0  0  0  0  0  0  0  0  0  0  0  0
   -0.4442   -0.9267   -1.9152 O   0  0  0  0  0  0  0  0  0  0  0  0
    1.1613    2.6535   -2.8911 C   0  0  0  0  0  0  0  0  0  0  0  0
    2.3612    2.2224   -2.0067 C   0  0  0  0  0  0  0  0  0  0  0  0
    1.9579    2.4329   -0.5863 C   0  0  0  0  0  0  0  0  0  0  0  0
    3.0274    2.1578    0.3308 N   0  0  0  0  0  0  0  0  0  0  0  0
    4.3061    2.8278    0.0220 C   0  0  0  0  0  0  0  0  0  0  0  0
    4.6497    2.7038   -1.4755 C   0  0  0  0  0  0  0  0  0  0  0  0
    3.5001    3.0658   -2.3240 O   0  0  0  0  0  0  0  0  0  0  0  0
   -1.1637    2.0837   -4.9401 O   0  0  0  0  0  0  0  0  0  0  0  0
   -3.4207    3.2102   -3.6568 C   0  0  0  0  0  0  0  0  0  0  0  0
   -3.7599    4.6141   -3.1067 C   0  0  0  0  0  0  0  0  0  0  0  0
   -3.7380    4.6650   -1.5691 C   0  0  0  0  0  0  0  0  0  0  0  0
   -2.8178    4.9405    1.1706 O   0  0  0  0  0  0  0  0  0  0  0  0
    1.1498    0.7960    3.1982 C   0  0  0  0  0  0  0  0  0  0  0  0
    2.1070    0.8010    4.2118 C   0  0  0  0  0  0  0  0  0  0  0  0
    3.4143    1.3205    3.9352 C   0  0  0  0  0  0  0  0  0  0  0  0
    3.6766    1.7472    2.6287 C   0  0  0  0  0  0  0  0  0  0  0  0
    2.7127    1.7220    1.6256 C   0  0  0  0  0  0  0  0  0  0  0  0
    1.4168    1.2372    1.9034 C   0  0  0  0  0  0  0  0  0  0  0  0
    3.4453   -4.2590   -0.6530 F   0  0  0  0  0  0  0  0  0  0  0  0
  1  2  1  0  0  0  0
  2  3  1  0  0  0  0
  2  5  1  0  0  0  0
  3  4  1  0  0  0  0
  5  6  4  0  0  0  0
  5 10  4  0  0  0  0
  6  7  4  0  0  0  0
  7  8  4  0  0  0  0
  8  9  4  0  0  0  0
  9 10  4  0  0  0  0
 10 11  1  0  0  0  0
 11 12  4  0  0  0  0
 11 15  4  0  0  0  0
 12 13  1  0  0  0  0
 12 68  4  0  0  0  0
 13 14  1  0  0  0  0
 15 16  1  0  0  0  0
 15 67  4  0  0  0  0
 16 17  1  0  0  0  0
 17 18  1  0  0  0  0
 17 19  1  0  0  0  0
 17 20  1  0  0  0  0
 20 21  1  0  0  0  0
 21 22  1  0  0  0  0
 22 23  1  0  0  0  0
 22 66  2  0  0  0  0
 23 24  1  0  0  0  0
 23 65  1  0  0  0  0
 24 25  1  0  0  0  0
 25 26  1  0  0  0  0
 25 63  1  0  0  0  0
 26 27  1  0  0  0  0
 26 62  2  0  0  0  0
 27 28  1  0  0  0  0
 27 55  1  0  0  0  0
 28 29  1  0  0  0  0
 29 30  1  0  0  0  0
 29 54  2  0  0  0  0
 30 31  1  0  0  0  0
 30 34  1  0  0  0  0
 31 32  1  0  0  0  0
 31 33  1  0  0  0  0
 34 35  1  0  0  0  0
 34 53  1  0  0  0  0
 35 36  1  0  0  0  0
 35 52  2  0  0  0  0
 36 37  1  0  0  0  0
 36 51  1  0  0  0  0
 36 73  1  0  0  0  0
 37 38  1  0  0  0  0
 38 39  1  0  0  0  0
 39 40  1  0  0  0  0
 39 50  1  0  0  0  0
 40 41  1  0  0  0  0
 40 49  2  0  0  0  0
 41 42  1  0  0  0  0
 42 43  1  0  0  0  0
 43 44  1  0  0  0  0
 43 47  1  0  0  0  0
 43 48  1  0  0  0  0
 44 45  1  0  0  0  0
 44 46  1  0  0  0  0
 50 51  1  0  0  0  0
 55 56  1  0  0  0  0
 56 57  1  0  0  0  0
 56 61  1  0  0  0  0
 57 58  1  0  0  0  0
 58 59  1  0  0  0  0
 58 71  1  0  0  0  0
 59 60  1  0  0  0  0
 60 61  1  0  0  0  0
 63 64  1  0  0  0  0
 64 65  1  0  0  0  0
 67 68  4  0  0  0  0
 67 72  4  0  0  0  0
 68 69  4  0  0  0  0
 69 70  4  0  0  0  0
 70 71  4  0  0  0  0
 71 72  4  0  0  0  0
M  END
$$$$
