mol_ETKDG4_218
  PyMOL3.1          3D                             0

 73 79  0  0  0  0  0  0  0  0999 V2000
    3.2184    3.0213    1.6927 C   0  0  0  0  0  0  0  0  0  0  0  0
    3.2832    3.6388    0.3532 C   0  0  0  0  0  0  0  0  0  0  0  0
    2.7283    4.9346    0.2533 O   0  0  0  0  0  0  0  0  0  0  0  0
    1.3339    5.0502    0.3620 C   0  0  0  0  0  0  0  0  0  0  0  0
    4.6623    3.7355   -0.1517 C   0  0  0  0  0  0  0  0  0  0  0  0
    5.4475    4.6642    0.3665 N   0  0  0  0  0  0  0  0  0  0  0  0
    6.7346    4.7884   -0.0144 C   0  0  0  0  0  0  0  0  0  0  0  0
    7.2988    3.9384   -0.9639 C   0  0  0  0  0  0  0  0  0  0  0  0
    6.4922    2.9451   -1.5155 C   0  0  0  0  0  0  0  0  0  0  0  0
    5.1458    2.8689   -1.1148 C   0  0  0  0  0  0  0  0  0  0  0  0
    4.3286    1.8535   -1.7318 C   0  0  0  0  0  0  0  0  0  0  0  0
    4.3496    0.5610   -1.3334 N   0  0  0  0  0  0  0  0  0  0  0  0
    5.1027   -0.0282   -0.1750 C   0  0  0  0  0  0  0  0  0  0  0  0
    6.2141   -0.8860   -0.5681 C   0  0  0  0  0  0  0  0  0  0  0  0
    3.3983    2.0420   -2.7906 C   0  0  0  0  0  0  0  0  0  0  0  0
    2.9081    3.3005   -3.4750 C   0  0  0  0  0  0  0  0  0  0  0  0
    3.7459    3.7944   -4.7312 C   0  0  0  0  0  0  0  0  0  0  0  0
    3.1404    5.1040   -5.2124 C   0  0  0  0  0  0  0  0  0  0  0  0
    5.1452    4.1436   -4.3850 C   0  0  0  0  0  0  0  0  0  0  0  0
    3.7438    2.7662   -5.8536 C   0  0  0  0  0  0  0  0  0  0  0  0
    2.5348    2.7649   -6.7600 O   0  0  0  0  0  0  0  0  0  0  0  0
    2.5941    2.7242   -8.1823 C   0  0  0  0  0  0  0  0  0  0  0  0
    1.3012    2.6498   -8.9741 C   0  0  0  0  0  0  0  0  0  0  0  0
    0.1910    3.0258   -8.1571 N   0  0  0  0  0  0  0  0  0  0  0  0
   -1.0736    3.0396   -8.7517 N   0  0  0  0  0  0  0  0  0  0  0  0
   -2.1145    2.3234   -8.2236 C   0  0  0  0  0  0  0  0  0  0  0  0
   -1.8709    1.4895   -7.0043 C   0  0  0  0  0  0  0  0  0  0  0  0
   -3.0109    1.4354   -6.1178 N   0  0  0  0  0  0  0  0  0  0  0  0
   -3.0875    2.0973   -4.9555 C   0  0  0  0  0  0  0  0  0  0  0  0
   -4.2379    1.7570   -4.0744 C   0  0  0  0  0  0  0  0  0  0  0  0
   -5.4627    2.7032   -4.1564 C   0  0  0  0  0  0  0  0  0  0  0  0
   -6.7142    2.0580   -3.6658 C   0  0  0  0  0  0  0  0  0  0  0  0
   -5.6224    3.4054   -5.4596 C   0  0  0  0  0  0  0  0  0  0  0  0
   -3.7127    1.6460   -2.7155 N   0  0  0  0  0  0  0  0  0  0  0  0
   -3.1019    0.4707   -2.3480 C   0  0  0  0  0  0  0  0  0  0  0  0
   -2.4475    0.2184   -1.0158 C   0  0  0  0  0  0  0  0  0  0  0  0
   -2.1214   -1.2616   -0.7960 C   0  0  0  0  0  0  0  0  0  0  0  0
   -1.4069   -1.4639    0.4856 C   0  0  0  0  0  0  0  0  0  0  0  0
   -0.2439   -0.5706    0.5746 N   0  0  0  0  0  0  0  0  0  0  0  0
    0.9965   -1.0281    0.8814 C   0  0  0  0  0  0  0  0  0  0  0  0
    1.2509   -2.3779    0.9414 C   0  0  0  0  0  0  0  0  0  0  0  0
    1.5127   -3.4890    1.0820 C   0  0  0  0  0  0  0  0  0  0  0  0
    1.6296   -4.8838    1.2347 C   0  0  0  0  0  0  0  0  0  0  0  0
    1.4190   -5.2148    2.6191 N   0  0  0  0  0  0  0  0  0  0  0  0
    2.4715   -5.0312    3.5426 C   0  0  0  0  0  0  0  0  0  0  0  0
    0.1028   -5.2699    3.1321 C   0  0  0  0  0  0  0  0  0  0  0  0
    2.9943   -5.3471    0.7659 C   0  0  0  0  0  0  0  0  0  0  0  0
    0.6104   -5.6010    0.3671 C   0  0  0  0  0  0  0  0  0  0  0  0
    1.9217   -0.2286    1.0798 O   0  0  0  0  0  0  0  0  0  0  0  0
   -0.4548    0.8201    0.3077 C   0  0  0  0  0  0  0  0  0  0  0  0
   -1.1469    1.0050   -0.9903 C   0  0  0  0  0  0  0  0  0  0  0  0
   -3.0719   -0.4394   -3.1947 O   0  0  0  0  0  0  0  0  0  0  0  0
   -3.7444    2.8329   -1.8410 C   0  0  0  0  0  0  0  0  0  0  0  0
   -2.1764    2.8320   -4.6074 O   0  0  0  0  0  0  0  0  0  0  0  0
   -1.5274    0.0199   -7.4603 C   0  0  0  0  0  0  0  0  0  0  0  0
   -1.1620   -0.9423   -6.3133 C   0  0  0  0  0  0  0  0  0  0  0  0
    0.2274   -0.6187   -5.9113 C   0  0  0  0  0  0  0  0  0  0  0  0
    0.7054   -1.5129   -4.9016 N   0  0  0  0  0  0  0  0  0  0  0  0
    0.5865   -2.9394   -5.2428 C   0  0  0  0  0  0  0  0  0  0  0  0
   -0.8133   -3.2496   -5.7932 C   0  0  0  0  0  0  0  0  0  0  0  0
   -1.2088   -2.2962   -6.8307 O   0  0  0  0  0  0  0  0  0  0  0  0
   -3.2345    2.3098   -8.7582 O   0  0  0  0  0  0  0  0  0  0  0  0
   -1.2061    3.9108   -9.9166 C   0  0  0  0  0  0  0  0  0  0  0  0
   -0.0608    3.6109  -10.9032 C   0  0  0  0  0  0  0  0  0  0  0  0
    1.3099    3.5789  -10.2240 C   0  0  0  0  0  0  0  0  0  0  0  0
    3.6570    2.7493   -8.8399 O   0  0  0  0  0  0  0  0  0  0  0  0
    2.9164    0.7451   -3.0340 C   0  0  0  0  0  0  0  0  0  0  0  0
    3.5119   -0.1241   -2.1209 C   0  0  0  0  0  0  0  0  0  0  0  0
    3.1570   -1.5091   -2.1291 C   0  0  0  0  0  0  0  0  0  0  0  0
    2.2158   -1.9254   -3.0598 C   0  0  0  0  0  0  0  0  0  0  0  0
    1.6341   -1.0482   -3.9739 C   0  0  0  0  0  0  0  0  0  0  0  0
    1.9746    0.3203   -3.9592 C   0  0  0  0  0  0  0  0  0  0  0  0
   -3.2713    0.6112    0.0171 F   0  0  0  0  0  0  0  0  0  0  0  0
  1  2  1  0  0  0  0
  2  3  1  0  0  0  0
  2  5  1  0  0  0  0
  3  4  1  0  0  0  0
  5  6  4  0  0  0  0
  5 10  4  0  0  0  0
  6  7  4  0  0  0  0
  7  8  4  0  0  0  0
  8  9  4  0  0  0  0
  9 10  4  0  0  0  0
 10 11  1  0  0  0  0
 11 12  4  0  0  0  0
 11 15  4  0  0  0  0
 12 13  1  0  0  0  0
 12 68  4  0  0  0  0
 13 14  1  0  0  0  0
 15 16  1  0  0  0  0
 15 67  4  0  0  0  0
 16 17  1  0  0  0  0
 17 18  1  0  0  0  0
 17 19  1  0  0  0  0
 17 20  1  0  0  0  0
 20 21  1  0  0  0  0
 21 22  1  0  0  0  0
 22 23  1  0  0  0  0
 22 66  2  0  0  0  0
 23 24  1  0  0  0  0
 23 65  1  0  0  0  0
 24 25  1  0  0  0  0
 25 26  1  0  0  0  0
 25 63  1  0  0  0  0
 26 27  1  0  0  0  0
 26 62  2  0  0  0  0
 27 28  1  0  0  0  0
 27 55  1  0  0  0  0
 28 29  1  0  0  0  0
 29 30  1  0  0  0  0
 29 54  2  0  0  0  0
 30 31  1  0  0  0  0
 30 34  1  0  0  0  0
 31 32  1  0  0  0  0
 31 33  1  0  0  0  0
 34 35  1  0  0  0  0
 34 53  1  0  0  0  0
 35 36  1  0  0  0  0
 35 52  2  0  0  0  0
 36 37  1  0  0  0  0
 36 51  1  0  0  0  0
 36 73  1  0  0  0  0
 37 38  1  0  0  0  0
 38 39  1  0  0  0  0
 39 40  1  0  0  0  0
 39 50  1  0  0  0  0
 40 41  1  0  0  0  0
 40 49  2  0  0  0  0
 41 42  1  0  0  0  0
 42 43  1  0  0  0  0
 43 44  1  0  0  0  0
 43 47  1  0  0  0  0
 43 48  1  0  0  0  0
 44 45  1  0  0  0  0
 44 46  1  0  0  0  0
 50 51  1  0  0  0  0
 55 56  1  0  0  0  0
 56 57  1  0  0  0  0
 56 61  1  0  0  0  0
 57 58  1  0  0  0  0
 58 59  1  0  0  0  0
 58 71  1  0  0  0  0
 59 60  1  0  0  0  0
 60 61  1  0  0  0  0
 63 64  1  0  0  0  0
 64 65  1  0  0  0  0
 67 68  4  0  0  0  0
 67 72  4  0  0  0  0
 68 69  4  0  0  0  0
 69 70  4  0  0  0  0
 70 71  4  0  0  0  0
 71 72  4  0  0  0  0
M  END
$$$$
