mol_ETKDG5_278
  PyMOL3.1          3D                             0

 73 79  0  0  0  0  0  0  0  0999 V2000
    3.1120    3.7860   -1.3590 C   0  0  0  0  0  0  0  0  0  0  0  0
    2.2935    3.0291   -2.3342 C   0  0  0  0  0  0  0  0  0  0  0  0
    1.2478    3.7591   -2.9423 O   0  0  0  0  0  0  0  0  0  0  0  0
    0.1356    4.0763   -2.1377 C   0  0  0  0  0  0  0  0  0  0  0  0
    3.1027    2.4376   -3.4109 C   0  0  0  0  0  0  0  0  0  0  0  0
    3.5004    3.2302   -4.3937 N   0  0  0  0  0  0  0  0  0  0  0  0
    4.2940    2.7700   -5.3852 C   0  0  0  0  0  0  0  0  0  0  0  0
    4.7360    1.4424   -5.4167 C   0  0  0  0  0  0  0  0  0  0  0  0
    4.3306    0.5895   -4.3808 C   0  0  0  0  0  0  0  0  0  0  0  0
    3.4843    1.0994   -3.3853 C   0  0  0  0  0  0  0  0  0  0  0  0
    3.0415    0.1989   -2.3492 C   0  0  0  0  0  0  0  0  0  0  0  0
    3.7969   -0.1020   -1.2673 N   0  0  0  0  0  0  0  0  0  0  0  0
    5.1612    0.4298   -0.9138 C   0  0  0  0  0  0  0  0  0  0  0  0
    6.2322   -0.5520   -1.1243 C   0  0  0  0  0  0  0  0  0  0  0  0
    1.7657   -0.4325   -2.2650 C   0  0  0  0  0  0  0  0  0  0  0  0
    0.5297   -0.3080   -3.1178 C   0  0  0  0  0  0  0  0  0  0  0  0
    0.3810   -1.2834   -4.3627 C   0  0  0  0  0  0  0  0  0  0  0  0
    1.5328   -1.1671   -5.3356 C   0  0  0  0  0  0  0  0  0  0  0  0
   -0.8370   -0.8321   -5.1298 C   0  0  0  0  0  0  0  0  0  0  0  0
    0.2385   -2.7557   -3.9570 C   0  0  0  0  0  0  0  0  0  0  0  0
   -1.1474   -3.1760   -3.5004 O   0  0  0  0  0  0  0  0  0  0  0  0
   -1.8794   -4.2870   -4.0394 C   0  0  0  0  0  0  0  0  0  0  0  0
   -3.1981   -4.6974   -3.3915 C   0  0  0  0  0  0  0  0  0  0  0  0
   -3.7841   -3.5863   -2.7053 N   0  0  0  0  0  0  0  0  0  0  0  0
   -5.0276   -3.7861   -2.0941 N   0  0  0  0  0  0  0  0  0  0  0  0
   -5.2214   -3.5082   -0.7720 C   0  0  0  0  0  0  0  0  0  0  0  0
   -4.0700   -2.9974    0.0429 C   0  0  0  0  0  0  0  0  0  0  0  0
   -4.4957   -1.9674    0.9699 N   0  0  0  0  0  0  0  0  0  0  0  0
   -4.4394   -0.6621    0.6819 C   0  0  0  0  0  0  0  0  0  0  0  0
   -4.7585    0.2794    1.7967 C   0  0  0  0  0  0  0  0  0  0  0  0
   -6.1828    0.9241    1.7046 C   0  0  0  0  0  0  0  0  0  0  0  0
   -6.5787    1.6299    2.9628 C   0  0  0  0  0  0  0  0  0  0  0  0
   -7.2371   -0.0347    1.2302 C   0  0  0  0  0  0  0  0  0  0  0  0
   -3.6770    1.2696    1.7997 N   0  0  0  0  0  0  0  0  0  0  0  0
   -2.5200    0.9736    2.4908 C   0  0  0  0  0  0  0  0  0  0  0  0
   -1.2580    1.8015    2.4961 C   0  0  0  0  0  0  0  0  0  0  0  0
   -0.5916    1.8977    3.8671 C   0  0  0  0  0  0  0  0  0  0  0  0
    0.7424    2.6273    3.7593 C   0  0  0  0  0  0  0  0  0  0  0  0
    1.5588    2.0910    2.6375 N   0  0  0  0  0  0  0  0  0  0  0  0
    2.8816    1.7596    2.6659 C   0  0  0  0  0  0  0  0  0  0  0  0
    3.5220    0.9926    3.6286 C   0  0  0  0  0  0  0  0  0  0  0  0
    4.2411    0.3802    4.3192 C   0  0  0  0  0  0  0  0  0  0  0  0
    4.9971   -0.4306    5.1932 C   0  0  0  0  0  0  0  0  0  0  0  0
    6.2248    0.2339    5.5558 N   0  0  0  0  0  0  0  0  0  0  0  0
    6.1688    1.3255    6.4556 C   0  0  0  0  0  0  0  0  0  0  0  0
    7.3349    0.1814    4.6830 C   0  0  0  0  0  0  0  0  0  0  0  0
    5.3047   -1.7529    4.5171 C   0  0  0  0  0  0  0  0  0  0  0  0
    4.1784   -0.7549    6.4266 C   0  0  0  0  0  0  0  0  0  0  0  0
    3.5773    2.0856    1.6989 O   0  0  0  0  0  0  0  0  0  0  0  0
    0.9173    1.9309    1.3920 C   0  0  0  0  0  0  0  0  0  0  0  0
   -0.3130    1.1273    1.5158 C   0  0  0  0  0  0  0  0  0  0  0  0
   -2.4913   -0.0994    3.1348 O   0  0  0  0  0  0  0  0  0  0  0  0
   -3.8291    2.4676    0.9636 C   0  0  0  0  0  0  0  0  0  0  0  0
   -4.0241   -0.2968   -0.4004 O   0  0  0  0  0  0  0  0  0  0  0  0
   -3.4126   -4.1854    0.8463 C   0  0  0  0  0  0  0  0  0  0  0  0
   -2.1513   -3.7993    1.6764 C   0  0  0  0  0  0  0  0  0  0  0  0
   -1.0251   -3.5986    0.7260 C   0  0  0  0  0  0  0  0  0  0  0  0
    0.2258   -3.3535    1.3984 N   0  0  0  0  0  0  0  0  0  0  0  0
    0.5827   -4.3426    2.4264 C   0  0  0  0  0  0  0  0  0  0  0  0
   -0.6254   -4.6491    3.3287 C   0  0  0  0  0  0  0  0  0  0  0  0
   -1.8441   -4.9228    2.5498 O   0  0  0  0  0  0  0  0  0  0  0  0
   -6.3205   -3.7095   -0.2144 O   0  0  0  0  0  0  0  0  0  0  0  0
   -6.1073   -4.2397   -2.9707 C   0  0  0  0  0  0  0  0  0  0  0  0
   -5.6139   -5.4648   -3.7641 C   0  0  0  0  0  0  0  0  0  0  0  0
   -4.2517   -5.2203   -4.4270 C   0  0  0  0  0  0  0  0  0  0  0  0
   -1.4930   -4.9432   -5.0261 O   0  0  0  0  0  0  0  0  0  0  0  0
    1.8463   -1.1750   -1.0779 C   0  0  0  0  0  0  0  0  0  0  0  0
    3.0962   -0.9468   -0.5002 C   0  0  0  0  0  0  0  0  0  0  0  0
    3.4132   -1.5544    0.7609 C   0  0  0  0  0  0  0  0  0  0  0  0
    2.4311   -2.3439    1.3602 C   0  0  0  0  0  0  0  0  0  0  0  0
    1.1889   -2.5607    0.7653 C   0  0  0  0  0  0  0  0  0  0  0  0
    0.8795   -1.9720   -0.4780 C   0  0  0  0  0  0  0  0  0  0  0  0
   -1.4690    3.0843    2.0924 F   0  0  0  0  0  0  0  0  0  0  0  0
  1  2  1  0  0  0  0
  2  3  1  0  0  0  0
  2  5  1  0  0  0  0
  3  4  1  0  0  0  0
  5  6  4  0  0  0  0
  5 10  4  0  0  0  0
  6  7  4  0  0  0  0
  7  8  4  0  0  0  0
  8  9  4  0  0  0  0
  9 10  4  0  0  0  0
 10 11  1  0  0  0  0
 11 12  4  0  0  0  0
 11 15  4  0  0  0  0
 12 13  1  0  0  0  0
 12 68  4  0  0  0  0
 13 14  1  0  0  0  0
 15 16  1  0  0  0  0
 15 67  4  0  0  0  0
 16 17  1  0  0  0  0
 17 18  1  0  0  0  0
 17 19  1  0  0  0  0
 17 20  1  0  0  0  0
 20 21  1  0  0  0  0
 21 22  1  0  0  0  0
 22 23  1  0  0  0  0
 22 66  2  0  0  0  0
 23 24  1  0  0  0  0
 23 65  1  0  0  0  0
 24 25  1  0  0  0  0
 25 26  1  0  0  0  0
 25 63  1  0  0  0  0
 26 27  1  0  0  0  0
 26 62  2  0  0  0  0
 27 28  1  0  0  0  0
 27 55  1  0  0  0  0
 28 29  1  0  0  0  0
 29 30  1  0  0  0  0
 29 54  2  0  0  0  0
 30 31  1  0  0  0  0
 30 34  1  0  0  0  0
 31 32  1  0  0  0  0
 31 33  1  0  0  0  0
 34 35  1  0  0  0  0
 34 53  1  0  0  0  0
 35 36  1  0  0  0  0
 35 52  2  0  0  0  0
 36 37  1  0  0  0  0
 36 51  1  0  0  0  0
 36 73  1  0  0  0  0
 37 38  1  0  0  0  0
 38 39  1  0  0  0  0
 39 40  1  0  0  0  0
 39 50  1  0  0  0  0
 40 41  1  0  0  0  0
 40 49  2  0  0  0  0
 41 42  1  0  0  0  0
 42 43  1  0  0  0  0
 43 44  1  0  0  0  0
 43 47  1  0  0  0  0
 43 48  1  0  0  0  0
 44 45  1  0  0  0  0
 44 46  1  0  0  0  0
 50 51  1  0  0  0  0
 55 56  1  0  0  0  0
 56 57  1  0  0  0  0
 56 61  1  0  0  0  0
 57 58  1  0  0  0  0
 58 59  1  0  0  0  0
 58 71  1  0  0  0  0
 59 60  1  0  0  0  0
 60 61  1  0  0  0  0
 63 64  1  0  0  0  0
 64 65  1  0  0  0  0
 67 68  4  0  0  0  0
 67 72  4  0  0  0  0
 68 69  4  0  0  0  0
 69 70  4  0  0  0  0
 70 71  4  0  0  0  0
 71 72  4  0  0  0  0
M  END
$$$$
