mol_ETKDG5_259
  PyMOL3.1          3D                             0

 73 79  0  0  0  0  0  0  0  0999 V2000
    0.4604   -3.5117   -4.6944 C   0  0  0  0  0  0  0  0  0  0  0  0
    1.1624   -2.8331   -3.5665 C   0  0  0  0  0  0  0  0  0  0  0  0
    2.5651   -2.7910   -3.7199 O   0  0  0  0  0  0  0  0  0  0  0  0
    3.0731   -1.9388   -4.7287 C   0  0  0  0  0  0  0  0  0  0  0  0
    0.8558   -3.4342   -2.2257 C   0  0  0  0  0  0  0  0  0  0  0  0
    1.3024   -4.6580   -1.9799 N   0  0  0  0  0  0  0  0  0  0  0  0
    1.0221   -5.2891   -0.8172 C   0  0  0  0  0  0  0  0  0  0  0  0
    0.2423   -4.6939    0.1728 C   0  0  0  0  0  0  0  0  0  0  0  0
   -0.2430   -3.4099   -0.0724 C   0  0  0  0  0  0  0  0  0  0  0  0
    0.0861   -2.7759   -1.2772 C   0  0  0  0  0  0  0  0  0  0  0  0
   -0.3751   -1.4331   -1.4966 C   0  0  0  0  0  0  0  0  0  0  0  0
   -1.3860   -1.1107   -2.3452 N   0  0  0  0  0  0  0  0  0  0  0  0
   -2.2443   -2.0352   -3.1680 C   0  0  0  0  0  0  0  0  0  0  0  0
   -3.5872   -2.2768   -2.6036 C   0  0  0  0  0  0  0  0  0  0  0  0
    0.1568   -0.2649   -0.8856 C   0  0  0  0  0  0  0  0  0  0  0  0
    1.1511   -0.0585    0.2075 C   0  0  0  0  0  0  0  0  0  0  0  0
    2.6812   -0.0993   -0.0837 C   0  0  0  0  0  0  0  0  0  0  0  0
    3.1613   -1.4846   -0.4705 C   0  0  0  0  0  0  0  0  0  0  0  0
    3.3831    0.1954    1.2202 C   0  0  0  0  0  0  0  0  0  0  0  0
    3.0903    0.8959   -1.1390 C   0  0  0  0  0  0  0  0  0  0  0  0
    3.3817    2.3067   -0.6420 O   0  0  0  0  0  0  0  0  0  0  0  0
    4.4454    3.1296   -1.1346 C   0  0  0  0  0  0  0  0  0  0  0  0
    4.5995    4.5472   -0.6120 C   0  0  0  0  0  0  0  0  0  0  0  0
    3.9556    4.6893    0.6572 N   0  0  0  0  0  0  0  0  0  0  0  0
    4.0516    5.9198    1.3018 N   0  0  0  0  0  0  0  0  0  0  0  0
    2.9336    6.6068    1.7104 C   0  0  0  0  0  0  0  0  0  0  0  0
    1.5824    6.0410    1.3925 C   0  0  0  0  0  0  0  0  0  0  0  0
    0.6429    6.2078    2.4816 N   0  0  0  0  0  0  0  0  0  0  0  0
    0.4106    5.2771    3.3971 C   0  0  0  0  0  0  0  0  0  0  0  0
   -0.7263    5.5315    4.3240 C   0  0  0  0  0  0  0  0  0  0  0  0
   -0.2488    5.9375    5.7569 C   0  0  0  0  0  0  0  0  0  0  0  0
   -1.3645    6.2503    6.6877 C   0  0  0  0  0  0  0  0  0  0  0  0
    0.7908    7.0216    5.7194 C   0  0  0  0  0  0  0  0  0  0  0  0
   -1.5498    4.3271    4.2841 N   0  0  0  0  0  0  0  0  0  0  0  0
   -2.5085    4.2076    3.2985 C   0  0  0  0  0  0  0  0  0  0  0  0
   -3.2998    2.9585    3.0573 C   0  0  0  0  0  0  0  0  0  0  0  0
   -2.4839    2.1751    2.0732 C   0  0  0  0  0  0  0  0  0  0  0  0
   -3.0211    0.8961    1.8191 C   0  0  0  0  0  0  0  0  0  0  0  0
   -4.4369    0.8849    1.5573 N   0  0  0  0  0  0  0  0  0  0  0  0
   -4.8720   -0.0346    0.6850 C   0  0  0  0  0  0  0  0  0  0  0  0
   -6.1890   -0.3848    0.6694 C   0  0  0  0  0  0  0  0  0  0  0  0
   -7.2105   -0.8793    0.6580 C   0  0  0  0  0  0  0  0  0  0  0  0
   -8.4881   -1.4034    0.8273 C   0  0  0  0  0  0  0  0  0  0  0  0
   -8.4183   -2.6880    1.4815 N   0  0  0  0  0  0  0  0  0  0  0  0
   -7.2927   -3.5037    1.2528 C   0  0  0  0  0  0  0  0  0  0  0  0
   -9.5735   -3.3302    1.9420 C   0  0  0  0  0  0  0  0  0  0  0  0
   -9.1615   -1.5423   -0.5287 C   0  0  0  0  0  0  0  0  0  0  0  0
   -9.3051   -0.4401    1.6646 C   0  0  0  0  0  0  0  0  0  0  0  0
   -4.0921   -0.6152   -0.0704 O   0  0  0  0  0  0  0  0  0  0  0  0
   -5.2967    1.7961    2.2708 C   0  0  0  0  0  0  0  0  0  0  0  0
   -4.7149    3.1248    2.5186 C   0  0  0  0  0  0  0  0  0  0  0  0
   -2.6828    5.1629    2.5234 O   0  0  0  0  0  0  0  0  0  0  0  0
   -1.2190    3.2325    5.2073 C   0  0  0  0  0  0  0  0  0  0  0  0
    1.0341    4.2392    3.3771 O   0  0  0  0  0  0  0  0  0  0  0  0
    0.9731    6.7404    0.1177 C   0  0  0  0  0  0  0  0  0  0  0  0
   -0.4030    6.1645   -0.3067 C   0  0  0  0  0  0  0  0  0  0  0  0
   -0.1522    4.9334   -1.0881 C   0  0  0  0  0  0  0  0  0  0  0  0
   -1.3724    4.3576   -1.5892 N   0  0  0  0  0  0  0  0  0  0  0  0
   -2.2476    5.2974   -2.3101 C   0  0  0  0  0  0  0  0  0  0  0  0
   -2.3951    6.6182   -1.5500 C   0  0  0  0  0  0  0  0  0  0  0  0
   -1.0873    7.1458   -1.1230 O   0  0  0  0  0  0  0  0  0  0  0  0
    3.0107    7.7039    2.2845 O   0  0  0  0  0  0  0  0  0  0  0  0
    5.4077    6.3947    1.5521 C   0  0  0  0  0  0  0  0  0  0  0  0
    6.2159    6.3211    0.2405 C   0  0  0  0  0  0  0  0  0  0  0  0
    6.0879    4.9666   -0.4489 C   0  0  0  0  0  0  0  0  0  0  0  0
    5.2750    2.7541   -1.9840 O   0  0  0  0  0  0  0  0  0  0  0  0
   -0.5994    0.7711   -1.4419 C   0  0  0  0  0  0  0  0  0  0  0  0
   -1.5459    0.2169   -2.2982 C   0  0  0  0  0  0  0  0  0  0  0  0
   -2.4991    1.0746   -2.9372 C   0  0  0  0  0  0  0  0  0  0  0  0
   -2.4108    2.4452   -2.6693 C   0  0  0  0  0  0  0  0  0  0  0  0
   -1.4381    2.9831   -1.8217 C   0  0  0  0  0  0  0  0  0  0  0  0
   -0.5063    2.1353   -1.1986 C   0  0  0  0  0  0  0  0  0  0  0  0
   -3.5160    2.2741    4.2146 F   0  0  0  0  0  0  0  0  0  0  0  0
  1  2  1  0  0  0  0
  2  3  1  0  0  0  0
  2  5  1  0  0  0  0
  3  4  1  0  0  0  0
  5  6  4  0  0  0  0
  5 10  4  0  0  0  0
  6  7  4  0  0  0  0
  7  8  4  0  0  0  0
  8  9  4  0  0  0  0
  9 10  4  0  0  0  0
 10 11  1  0  0  0  0
 11 12  4  0  0  0  0
 11 15  4  0  0  0  0
 12 13  1  0  0  0  0
 12 68  4  0  0  0  0
 13 14  1  0  0  0  0
 15 16  1  0  0  0  0
 15 67  4  0  0  0  0
 16 17  1  0  0  0  0
 17 18  1  0  0  0  0
 17 19  1  0  0  0  0
 17 20  1  0  0  0  0
 20 21  1  0  0  0  0
 21 22  1  0  0  0  0
 22 23  1  0  0  0  0
 22 66  2  0  0  0  0
 23 24  1  0  0  0  0
 23 65  1  0  0  0  0
 24 25  1  0  0  0  0
 25 26  1  0  0  0  0
 25 63  1  0  0  0  0
 26 27  1  0  0  0  0
 26 62  2  0  0  0  0
 27 28  1  0  0  0  0
 27 55  1  0  0  0  0
 28 29  1  0  0  0  0
 29 30  1  0  0  0  0
 29 54  2  0  0  0  0
 30 31  1  0  0  0  0
 30 34  1  0  0  0  0
 31 32  1  0  0  0  0
 31 33  1  0  0  0  0
 34 35  1  0  0  0  0
 34 53  1  0  0  0  0
 35 36  1  0  0  0  0
 35 52  2  0  0  0  0
 36 37  1  0  0  0  0
 36 51  1  0  0  0  0
 36 73  1  0  0  0  0
 37 38  1  0  0  0  0
 38 39  1  0  0  0  0
 39 40  1  0  0  0  0
 39 50  1  0  0  0  0
 40 41  1  0  0  0  0
 40 49  2  0  0  0  0
 41 42  1  0  0  0  0
 42 43  1  0  0  0  0
 43 44  1  0  0  0  0
 43 47  1  0  0  0  0
 43 48  1  0  0  0  0
 44 45  1  0  0  0  0
 44 46  1  0  0  0  0
 50 51  1  0  0  0  0
 55 56  1  0  0  0  0
 56 57  1  0  0  0  0
 56 61  1  0  0  0  0
 57 58  1  0  0  0  0
 58 59  1  0  0  0  0
 58 71  1  0  0  0  0
 59 60  1  0  0  0  0
 60 61  1  0  0  0  0
 63 64  1  0  0  0  0
 64 65  1  0  0  0  0
 67 68  4  0  0  0  0
 67 72  4  0  0  0  0
 68 69  4  0  0  0  0
 69 70  4  0  0  0  0
 70 71  4  0  0  0  0
 71 72  4  0  0  0  0
M  END
$$$$
