mol_ETKDG0_320
  PyMOL3.1          3D                             0

 73 79  0  0  0  0  0  0  0  0999 V2000
   -4.9953   -1.7486   -2.9409 C   0  0  0  0  0  0  0  0  0  0  0  0
   -3.6466   -1.5101   -3.5110 C   0  0  0  0  0  0  0  0  0  0  0  0
   -3.6221   -0.6351   -4.6185 O   0  0  0  0  0  0  0  0  0  0  0  0
   -3.7915    0.7433   -4.3720 C   0  0  0  0  0  0  0  0  0  0  0  0
   -2.9820   -2.7631   -3.9474 C   0  0  0  0  0  0  0  0  0  0  0  0
   -3.4740   -3.3854   -5.0073 N   0  0  0  0  0  0  0  0  0  0  0  0
   -2.9611   -4.5619   -5.4341 C   0  0  0  0  0  0  0  0  0  0  0  0
   -1.8960   -5.1820   -4.7705 C   0  0  0  0  0  0  0  0  0  0  0  0
   -1.3635   -4.5481   -3.6412 C   0  0  0  0  0  0  0  0  0  0  0  0
   -1.9045   -3.3098   -3.2509 C   0  0  0  0  0  0  0  0  0  0  0  0
   -1.3233   -2.6482   -2.1116 C   0  0  0  0  0  0  0  0  0  0  0  0
   -1.6224   -2.9822   -0.8296 N   0  0  0  0  0  0  0  0  0  0  0  0
   -2.6032   -4.0215   -0.3477 C   0  0  0  0  0  0  0  0  0  0  0  0
   -1.9640   -5.2483    0.1353 C   0  0  0  0  0  0  0  0  0  0  0  0
   -0.4319   -1.5369   -2.1511 C   0  0  0  0  0  0  0  0  0  0  0  0
    0.0929   -0.7183   -3.3162 C   0  0  0  0  0  0  0  0  0  0  0  0
    1.4167   -1.2713   -4.0107 C   0  0  0  0  0  0  0  0  0  0  0  0
    1.6710   -0.4470   -5.2696 C   0  0  0  0  0  0  0  0  0  0  0  0
    1.2711   -2.6620   -4.4979 C   0  0  0  0  0  0  0  0  0  0  0  0
    2.5992   -1.2011   -3.0903 C   0  0  0  0  0  0  0  0  0  0  0  0
    3.2850    0.1250   -2.9688 O   0  0  0  0  0  0  0  0  0  0  0  0
    4.7024    0.2934   -2.8858 C   0  0  0  0  0  0  0  0  0  0  0  0
    5.2695    1.6837   -2.6636 C   0  0  0  0  0  0  0  0  0  0  0  0
    4.2479    2.6760   -2.8231 N   0  0  0  0  0  0  0  0  0  0  0  0
    4.6180    4.0076   -2.6635 N   0  0  0  0  0  0  0  0  0  0  0  0
    4.0000    4.8105   -1.7415 C   0  0  0  0  0  0  0  0  0  0  0  0
    2.8909    4.2353   -0.8969 C   0  0  0  0  0  0  0  0  0  0  0  0
    1.8462    5.2133   -0.6555 N   0  0  0  0  0  0  0  0  0  0  0  0
    0.6851    5.2536   -1.3412 C   0  0  0  0  0  0  0  0  0  0  0  0
   -0.3417    6.2338   -0.8742 C   0  0  0  0  0  0  0  0  0  0  0  0
   -0.4288    7.5531   -1.6973 C   0  0  0  0  0  0  0  0  0  0  0  0
   -1.0771    8.6736   -0.9555 C   0  0  0  0  0  0  0  0  0  0  0  0
    0.8199    7.9377   -2.4022 C   0  0  0  0  0  0  0  0  0  0  0  0
   -1.6241    5.5099   -0.8317 N   0  0  0  0  0  0  0  0  0  0  0  0
   -1.8843    4.6926    0.2431 C   0  0  0  0  0  0  0  0  0  0  0  0
   -3.1086    3.8207    0.4039 C   0  0  0  0  0  0  0  0  0  0  0  0
   -3.3024    3.3295    1.8468 C   0  0  0  0  0  0  0  0  0  0  0  0
   -4.4337    2.3479    1.9411 C   0  0  0  0  0  0  0  0  0  0  0  0
   -4.2685    1.2722    0.9343 N   0  0  0  0  0  0  0  0  0  0  0  0
   -4.2664   -0.0725    1.2109 C   0  0  0  0  0  0  0  0  0  0  0  0
   -4.2214   -0.5924    2.4959 C   0  0  0  0  0  0  0  0  0  0  0  0
   -4.2618   -1.1698    3.5169 C   0  0  0  0  0  0  0  0  0  0  0  0
   -4.2925   -1.7513    4.8050 C   0  0  0  0  0  0  0  0  0  0  0  0
   -5.4485   -2.5969    4.9310 N   0  0  0  0  0  0  0  0  0  0  0  0
   -5.4566   -3.8821    4.3470 C   0  0  0  0  0  0  0  0  0  0  0  0
   -6.6880   -2.0897    5.3854 C   0  0  0  0  0  0  0  0  0  0  0  0
   -3.0228   -2.5561    5.0518 C   0  0  0  0  0  0  0  0  0  0  0  0
   -4.3122   -0.6547    5.8478 C   0  0  0  0  0  0  0  0  0  0  0  0
   -4.2637   -0.8847    0.2613 O   0  0  0  0  0  0  0  0  0  0  0  0
   -4.0745    1.6950   -0.4203 C   0  0  0  0  0  0  0  0  0  0  0  0
   -2.9022    2.6153   -0.4989 C   0  0  0  0  0  0  0  0  0  0  0  0
   -1.0191    4.6442    1.1394 O   0  0  0  0  0  0  0  0  0  0  0  0
   -2.5238    5.5868   -1.9997 C   0  0  0  0  0  0  0  0  0  0  0  0
    0.4596    4.4286   -2.2132 O   0  0  0  0  0  0  0  0  0  0  0  0
    3.4752    3.7325    0.4904 C   0  0  0  0  0  0  0  0  0  0  0  0
    2.4448    3.0212    1.4239 C   0  0  0  0  0  0  0  0  0  0  0  0
    2.2680    1.6371    0.9113 C   0  0  0  0  0  0  0  0  0  0  0  0
    1.4056    0.8378    1.7555 N   0  0  0  0  0  0  0  0  0  0  0  0
    1.7799    0.8173    3.1768 C   0  0  0  0  0  0  0  0  0  0  0  0
    2.0983    2.2378    3.6779 C   0  0  0  0  0  0  0  0  0  0  0  0
    3.0078    2.9539    2.7675 O   0  0  0  0  0  0  0  0  0  0  0  0
    4.3612    5.9868   -1.5507 O   0  0  0  0  0  0  0  0  0  0  0  0
    5.6697    4.4764   -3.5732 C   0  0  0  0  0  0  0  0  0  0  0  0
    6.8669    3.4994   -3.4976 C   0  0  0  0  0  0  0  0  0  0  0  0
    6.4408    2.0267   -3.6344 C   0  0  0  0  0  0  0  0  0  0  0  0
    5.5328   -0.6421   -2.9868 O   0  0  0  0  0  0  0  0  0  0  0  0
   -0.1892   -1.2688   -0.7921 C   0  0  0  0  0  0  0  0  0  0  0  0
   -0.9325   -2.1692   -0.0236 C   0  0  0  0  0  0  0  0  0  0  0  0
   -0.8942   -2.0747    1.4070 C   0  0  0  0  0  0  0  0  0  0  0  0
   -0.1119   -1.0594    1.9644 C   0  0  0  0  0  0  0  0  0  0  0  0
    0.6287   -0.1702    1.1725 C   0  0  0  0  0  0  0  0  0  0  0  0
    0.5883   -0.2724   -0.2245 C   0  0  0  0  0  0  0  0  0  0  0  0
   -4.2576    4.5048    0.0532 F   0  0  0  0  0  0  0  0  0  0  0  0
  1  2  1  0  0  0  0
  2  3  1  0  0  0  0
  2  5  1  0  0  0  0
  3  4  1  0  0  0  0
  5  6  4  0  0  0  0
  5 10  4  0  0  0  0
  6  7  4  0  0  0  0
  7  8  4  0  0  0  0
  8  9  4  0  0  0  0
  9 10  4  0  0  0  0
 10 11  1  0  0  0  0
 11 12  4  0  0  0  0
 11 15  4  0  0  0  0
 12 13  1  0  0  0  0
 12 68  4  0  0  0  0
 13 14  1  0  0  0  0
 15 16  1  0  0  0  0
 15 67  4  0  0  0  0
 16 17  1  0  0  0  0
 17 18  1  0  0  0  0
 17 19  1  0  0  0  0
 17 20  1  0  0  0  0
 20 21  1  0  0  0  0
 21 22  1  0  0  0  0
 22 23  1  0  0  0  0
 22 66  2  0  0  0  0
 23 24  1  0  0  0  0
 23 65  1  0  0  0  0
 24 25  1  0  0  0  0
 25 26  1  0  0  0  0
 25 63  1  0  0  0  0
 26 27  1  0  0  0  0
 26 62  2  0  0  0  0
 27 28  1  0  0  0  0
 27 55  1  0  0  0  0
 28 29  1  0  0  0  0
 29 30  1  0  0  0  0
 29 54  2  0  0  0  0
 30 31  1  0  0  0  0
 30 34  1  0  0  0  0
 31 32  1  0  0  0  0
 31 33  1  0  0  0  0
 34 35  1  0  0  0  0
 34 53  1  0  0  0  0
 35 36  1  0  0  0  0
 35 52  2  0  0  0  0
 36 37  1  0  0  0  0
 36 51  1  0  0  0  0
 36 73  1  0  0  0  0
 37 38  1  0  0  0  0
 38 39  1  0  0  0  0
 39 40  1  0  0  0  0
 39 50  1  0  0  0  0
 40 41  1  0  0  0  0
 40 49  2  0  0  0  0
 41 42  1  0  0  0  0
 42 43  1  0  0  0  0
 43 44  1  0  0  0  0
 43 47  1  0  0  0  0
 43 48  1  0  0  0  0
 44 45  1  0  0  0  0
 44 46  1  0  0  0  0
 50 51  1  0  0  0  0
 55 56  1  0  0  0  0
 56 57  1  0  0  0  0
 56 61  1  0  0  0  0
 57 58  1  0  0  0  0
 58 59  1  0  0  0  0
 58 71  1  0  0  0  0
 59 60  1  0  0  0  0
 60 61  1  0  0  0  0
 63 64  1  0  0  0  0
 64 65  1  0  0  0  0
 67 68  4  0  0  0  0
 67 72  4  0  0  0  0
 68 69  4  0  0  0  0
 69 70  4  0  0  0  0
 70 71  4  0  0  0  0
 71 72  4  0  0  0  0
M  END
$$$$
