mol_ETKDG3_153
  PyMOL3.1          3D                             0

 73 79  0  0  0  0  0  0  0  0999 V2000
   -7.6958    1.2828   -1.6653 C   0  0  0  0  0  0  0  0  0  0  0  0
   -7.2717    1.0076   -0.2722 C   0  0  0  0  0  0  0  0  0  0  0  0
   -7.6013    1.9932    0.6786 O   0  0  0  0  0  0  0  0  0  0  0  0
   -6.8639    3.2011    0.6418 C   0  0  0  0  0  0  0  0  0  0  0  0
   -7.7613   -0.2926    0.2413 C   0  0  0  0  0  0  0  0  0  0  0  0
   -9.0426   -0.4094    0.5516 N   0  0  0  0  0  0  0  0  0  0  0  0
   -9.5630   -1.5880    0.9679 C   0  0  0  0  0  0  0  0  0  0  0  0
   -8.7718   -2.7399    1.0814 C   0  0  0  0  0  0  0  0  0  0  0  0
   -7.4104   -2.6409    0.7507 C   0  0  0  0  0  0  0  0  0  0  0  0
   -6.9081   -1.3849    0.3554 C   0  0  0  0  0  0  0  0  0  0  0  0
   -5.4977   -1.2592    0.0721 C   0  0  0  0  0  0  0  0  0  0  0  0
   -4.9511   -1.5336   -1.1425 N   0  0  0  0  0  0  0  0  0  0  0  0
   -5.6659   -1.9778   -2.3959 C   0  0  0  0  0  0  0  0  0  0  0  0
   -5.3939   -3.3698   -2.7652 C   0  0  0  0  0  0  0  0  0  0  0  0
   -4.5120   -0.7428    0.9635 C   0  0  0  0  0  0  0  0  0  0  0  0
   -4.6419   -0.1233    2.3429 C   0  0  0  0  0  0  0  0  0  0  0  0
   -4.5215   -1.0816    3.6065 C   0  0  0  0  0  0  0  0  0  0  0  0
   -4.9496   -0.2824    4.8392 C   0  0  0  0  0  0  0  0  0  0  0  0
   -5.4582   -2.2323    3.5594 C   0  0  0  0  0  0  0  0  0  0  0  0
   -3.1057   -1.6024    3.7788 C   0  0  0  0  0  0  0  0  0  0  0  0
   -2.0978   -0.7659    4.5228 O   0  0  0  0  0  0  0  0  0  0  0  0
   -1.1824   -1.3010    5.5064 C   0  0  0  0  0  0  0  0  0  0  0  0
   -0.0733   -0.4136    6.0461 C   0  0  0  0  0  0  0  0  0  0  0  0
   -0.2522    0.9427    5.6455 N   0  0  0  0  0  0  0  0  0  0  0  0
    0.7200    1.8643    6.0360 N   0  0  0  0  0  0  0  0  0  0  0  0
    1.3757    2.6355    5.1063 C   0  0  0  0  0  0  0  0  0  0  0  0
    1.0051    2.4966    3.6528 C   0  0  0  0  0  0  0  0  0  0  0  0
    1.0480    3.7683    2.9505 N   0  0  0  0  0  0  0  0  0  0  0  0
   -0.0362    4.5350    2.7291 C   0  0  0  0  0  0  0  0  0  0  0  0
    0.1631    5.7121    1.8322 C   0  0  0  0  0  0  0  0  0  0  0  0
    0.2470    7.0980    2.5534 C   0  0  0  0  0  0  0  0  0  0  0  0
    0.7645    8.1732    1.6468 C   0  0  0  0  0  0  0  0  0  0  0  0
    0.9721    7.0451    3.8634 C   0  0  0  0  0  0  0  0  0  0  0  0
   -0.8942    5.6750    0.8215 N   0  0  0  0  0  0  0  0  0  0  0  0
   -0.6659    4.9459   -0.3294 C   0  0  0  0  0  0  0  0  0  0  0  0
   -1.6579    4.7667   -1.4616 C   0  0  0  0  0  0  0  0  0  0  0  0
   -2.4311    3.4899   -1.1873 C   0  0  0  0  0  0  0  0  0  0  0  0
   -3.4372    3.2198   -2.2697 C   0  0  0  0  0  0  0  0  0  0  0  0
   -2.7410    3.1876   -3.5672 N   0  0  0  0  0  0  0  0  0  0  0  0
   -2.8445    2.0855   -4.3878 C   0  0  0  0  0  0  0  0  0  0  0  0
   -1.8894    1.7681   -5.3515 C   0  0  0  0  0  0  0  0  0  0  0  0
   -1.1762    1.4002   -6.2085 C   0  0  0  0  0  0  0  0  0  0  0  0
   -0.2093    1.0588   -7.1625 C   0  0  0  0  0  0  0  0  0  0  0  0
   -0.6011    1.4145   -8.4976 N   0  0  0  0  0  0  0  0  0  0  0  0
    0.3269    1.3921   -9.5535 C   0  0  0  0  0  0  0  0  0  0  0  0
   -1.9659    1.3944   -8.8744 C   0  0  0  0  0  0  0  0  0  0  0  0
    0.0531   -0.4539   -7.0924 C   0  0  0  0  0  0  0  0  0  0  0  0
    1.0936    1.7622   -6.8091 C   0  0  0  0  0  0  0  0  0  0  0  0
   -3.7819    1.2972   -4.2393 O   0  0  0  0  0  0  0  0  0  0  0  0
   -1.9454    4.3466   -3.8972 C   0  0  0  0  0  0  0  0  0  0  0  0
   -0.9578    4.6697   -2.8291 C   0  0  0  0  0  0  0  0  0  0  0  0
    0.4333    4.3675   -0.4377 O   0  0  0  0  0  0  0  0  0  0  0  0
   -2.1881    6.3157    1.1228 C   0  0  0  0  0  0  0  0  0  0  0  0
   -1.1275    4.1920    3.1442 O   0  0  0  0  0  0  0  0  0  0  0  0
    1.9932    1.4948    2.9311 C   0  0  0  0  0  0  0  0  0  0  0  0
    1.6976    1.2577    1.4164 C   0  0  0  0  0  0  0  0  0  0  0  0
    0.5526    0.3112    1.3175 C   0  0  0  0  0  0  0  0  0  0  0  0
    0.2736   -0.0795   -0.0503 N   0  0  0  0  0  0  0  0  0  0  0  0
    1.4357   -0.5629   -0.8087 C   0  0  0  0  0  0  0  0  0  0  0  0
    2.6457    0.3640   -0.6112 C   0  0  0  0  0  0  0  0  0  0  0  0
    2.8733    0.6542    0.8150 O   0  0  0  0  0  0  0  0  0  0  0  0
    2.2888    3.4198    5.4276 O   0  0  0  0  0  0  0  0  0  0  0  0
    0.9239    1.9784    7.4839 C   0  0  0  0  0  0  0  0  0  0  0  0
    1.1246    0.5646    8.0848 C   0  0  0  0  0  0  0  0  0  0  0  0
    0.0710   -0.4483    7.6040 C   0  0  0  0  0  0  0  0  0  0  0  0
   -1.2420   -2.4607    5.9509 O   0  0  0  0  0  0  0  0  0  0  0  0
   -3.3276   -0.7977    0.2033 C   0  0  0  0  0  0  0  0  0  0  0  0
   -3.6345   -1.2719   -1.0723 C   0  0  0  0  0  0  0  0  0  0  0  0
   -2.5973   -1.3543   -2.0660 C   0  0  0  0  0  0  0  0  0  0  0  0
   -1.3155   -0.9437   -1.6889 C   0  0  0  0  0  0  0  0  0  0  0  0
   -1.0256   -0.4819   -0.3972 C   0  0  0  0  0  0  0  0  0  0  0  0
   -2.0488   -0.4039    0.5669 C   0  0  0  0  0  0  0  0  0  0  0  0
   -2.5095    5.8438   -1.5791 F   0  0  0  0  0  0  0  0  0  0  0  0
  1  2  1  0  0  0  0
  2  3  1  0  0  0  0
  2  5  1  0  0  0  0
  3  4  1  0  0  0  0
  5  6  4  0  0  0  0
  5 10  4  0  0  0  0
  6  7  4  0  0  0  0
  7  8  4  0  0  0  0
  8  9  4  0  0  0  0
  9 10  4  0  0  0  0
 10 11  1  0  0  0  0
 11 12  4  0  0  0  0
 11 15  4  0  0  0  0
 12 13  1  0  0  0  0
 12 68  4  0  0  0  0
 13 14  1  0  0  0  0
 15 16  1  0  0  0  0
 15 67  4  0  0  0  0
 16 17  1  0  0  0  0
 17 18  1  0  0  0  0
 17 19  1  0  0  0  0
 17 20  1  0  0  0  0
 20 21  1  0  0  0  0
 21 22  1  0  0  0  0
 22 23  1  0  0  0  0
 22 66  2  0  0  0  0
 23 24  1  0  0  0  0
 23 65  1  0  0  0  0
 24 25  1  0  0  0  0
 25 26  1  0  0  0  0
 25 63  1  0  0  0  0
 26 27  1  0  0  0  0
 26 62  2  0  0  0  0
 27 28  1  0  0  0  0
 27 55  1  0  0  0  0
 28 29  1  0  0  0  0
 29 30  1  0  0  0  0
 29 54  2  0  0  0  0
 30 31  1  0  0  0  0
 30 34  1  0  0  0  0
 31 32  1  0  0  0  0
 31 33  1  0  0  0  0
 34 35  1  0  0  0  0
 34 53  1  0  0  0  0
 35 36  1  0  0  0  0
 35 52  2  0  0  0  0
 36 37  1  0  0  0  0
 36 51  1  0  0  0  0
 36 73  1  0  0  0  0
 37 38  1  0  0  0  0
 38 39  1  0  0  0  0
 39 40  1  0  0  0  0
 39 50  1  0  0  0  0
 40 41  1  0  0  0  0
 40 49  2  0  0  0  0
 41 42  1  0  0  0  0
 42 43  1  0  0  0  0
 43 44  1  0  0  0  0
 43 47  1  0  0  0  0
 43 48  1  0  0  0  0
 44 45  1  0  0  0  0
 44 46  1  0  0  0  0
 50 51  1  0  0  0  0
 55 56  1  0  0  0  0
 56 57  1  0  0  0  0
 56 61  1  0  0  0  0
 57 58  1  0  0  0  0
 58 59  1  0  0  0  0
 58 71  1  0  0  0  0
 59 60  1  0  0  0  0
 60 61  1  0  0  0  0
 63 64  1  0  0  0  0
 64 65  1  0  0  0  0
 67 68  4  0  0  0  0
 67 72  4  0  0  0  0
 68 69  4  0  0  0  0
 69 70  4  0  0  0  0
 70 71  4  0  0  0  0
 71 72  4  0  0  0  0
M  END
$$$$
