mol_ETKDG2_140
  PyMOL3.1          3D                             0

 73 79  0  0  0  0  0  0  0  0999 V2000
   -4.8391    4.3371   -1.6624 C   0  0  0  0  0  0  0  0  0  0  0  0
   -4.2523    3.2151   -2.4250 C   0  0  0  0  0  0  0  0  0  0  0  0
   -5.1579    2.2263   -2.8581 O   0  0  0  0  0  0  0  0  0  0  0  0
   -5.6519    1.3352   -1.8880 C   0  0  0  0  0  0  0  0  0  0  0  0
   -3.5261    3.6690   -3.6294 C   0  0  0  0  0  0  0  0  0  0  0  0
   -4.2354    4.1200   -4.6543 N   0  0  0  0  0  0  0  0  0  0  0  0
   -3.6330    4.6112   -5.7562 C   0  0  0  0  0  0  0  0  0  0  0  0
   -2.2409    4.6706   -5.8648 C   0  0  0  0  0  0  0  0  0  0  0  0
   -1.4765    4.2025   -4.7880 C   0  0  0  0  0  0  0  0  0  0  0  0
   -2.1382    3.6660   -3.6777 C   0  0  0  0  0  0  0  0  0  0  0  0
   -1.3440    3.1241   -2.6040 C   0  0  0  0  0  0  0  0  0  0  0  0
   -0.8630    3.8688   -1.5771 N   0  0  0  0  0  0  0  0  0  0  0  0
   -1.0560    5.3398   -1.3426 C   0  0  0  0  0  0  0  0  0  0  0  0
    0.1345    6.1281   -1.6592 C   0  0  0  0  0  0  0  0  0  0  0  0
   -1.0393    1.7485   -2.4144 C   0  0  0  0  0  0  0  0  0  0  0  0
   -1.4204    0.5204   -3.2103 C   0  0  0  0  0  0  0  0  0  0  0  0
   -0.4703    0.1639   -4.4393 C   0  0  0  0  0  0  0  0  0  0  0  0
   -0.9908   -1.1050   -5.0883 C   0  0  0  0  0  0  0  0  0  0  0  0
   -0.5316    1.1663   -5.5258 C   0  0  0  0  0  0  0  0  0  0  0  0
    0.9617   -0.0274   -4.0242 C   0  0  0  0  0  0  0  0  0  0  0  0
    1.3083   -1.3900   -3.5018 O   0  0  0  0  0  0  0  0  0  0  0  0
    2.5460   -2.0580   -3.7457 C   0  0  0  0  0  0  0  0  0  0  0  0
    2.7549   -3.4381   -3.1477 C   0  0  0  0  0  0  0  0  0  0  0  0
    1.5144   -3.9562   -2.6701 N   0  0  0  0  0  0  0  0  0  0  0  0
    1.5033   -5.2355   -2.1305 N   0  0  0  0  0  0  0  0  0  0  0  0
    1.0064   -5.4654   -0.8811 C   0  0  0  0  0  0  0  0  0  0  0  0
    0.5453   -4.2947   -0.0705 C   0  0  0  0  0  0  0  0  0  0  0  0
   -0.6732   -4.5622    0.6718 N   0  0  0  0  0  0  0  0  0  0  0  0
   -1.8816   -4.0548    0.3287 C   0  0  0  0  0  0  0  0  0  0  0  0
   -2.9875   -4.2858    1.3015 C   0  0  0  0  0  0  0  0  0  0  0  0
   -3.9925   -5.4039    0.9471 C   0  0  0  0  0  0  0  0  0  0  0  0
   -3.5856   -6.3612   -0.0691 C   0  0  0  0  0  0  0  0  0  0  0  0
   -4.6690   -5.9798    2.1518 C   0  0  0  0  0  0  0  0  0  0  0  0
   -3.6638   -3.0059    1.5075 N   0  0  0  0  0  0  0  0  0  0  0  0
   -3.1122   -2.1223    2.4084 C   0  0  0  0  0  0  0  0  0  0  0  0
   -3.6325   -0.7320    2.6932 C   0  0  0  0  0  0  0  0  0  0  0  0
   -2.9673   -0.1177    3.9327 C   0  0  0  0  0  0  0  0  0  0  0  0
   -3.3626    1.3103    4.1224 C   0  0  0  0  0  0  0  0  0  0  0  0
   -3.1454    2.0695    2.8810 N   0  0  0  0  0  0  0  0  0  0  0  0
   -2.3946    3.2124    2.8237 C   0  0  0  0  0  0  0  0  0  0  0  0
   -1.3366    3.4245    3.6834 C   0  0  0  0  0  0  0  0  0  0  0  0
   -0.4294    3.6895    4.3683 C   0  0  0  0  0  0  0  0  0  0  0  0
    0.6611    3.7670    5.2547 C   0  0  0  0  0  0  0  0  0  0  0  0
    0.3790    4.4351    6.4843 N   0  0  0  0  0  0  0  0  0  0  0  0
    1.3456    4.5032    7.5043 C   0  0  0  0  0  0  0  0  0  0  0  0
   -0.9047    4.9008    6.7986 C   0  0  0  0  0  0  0  0  0  0  0  0
    1.8174    4.4668    4.5532 C   0  0  0  0  0  0  0  0  0  0  0  0
    1.1033    2.3404    5.5849 C   0  0  0  0  0  0  0  0  0  0  0  0
   -2.6010    4.0353    1.9232 O   0  0  0  0  0  0  0  0  0  0  0  0
   -3.7358    1.5350    1.6895 C   0  0  0  0  0  0  0  0  0  0  0  0
   -3.2813    0.1269    1.4875 C   0  0  0  0  0  0  0  0  0  0  0  0
   -2.0867   -2.4900    3.0072 O   0  0  0  0  0  0  0  0  0  0  0  0
   -4.8347   -2.6711    0.6808 C   0  0  0  0  0  0  0  0  0  0  0  0
   -2.0033   -3.3447   -0.6571 O   0  0  0  0  0  0  0  0  0  0  0  0
    1.7014   -3.8727    0.9221 C   0  0  0  0  0  0  0  0  0  0  0  0
    1.4228   -2.5739    1.7133 C   0  0  0  0  0  0  0  0  0  0  0  0
    1.5664   -1.4403    0.7610 C   0  0  0  0  0  0  0  0  0  0  0  0
    1.4137   -0.1741    1.4173 N   0  0  0  0  0  0  0  0  0  0  0  0
    2.2749    0.0207    2.5936 C   0  0  0  0  0  0  0  0  0  0  0  0
    2.2254   -1.2083    3.5115 C   0  0  0  0  0  0  0  0  0  0  0  0
    2.4268   -2.4547    2.7551 O   0  0  0  0  0  0  0  0  0  0  0  0
    0.9718   -6.6005   -0.3851 O   0  0  0  0  0  0  0  0  0  0  0  0
    1.9892   -6.3001   -3.0075 C   0  0  0  0  0  0  0  0  0  0  0  0
    3.3560   -5.8816   -3.5935 C   0  0  0  0  0  0  0  0  0  0  0  0
    3.3451   -4.4618   -4.1725 C   0  0  0  0  0  0  0  0  0  0  0  0
    3.4837   -1.5803   -4.4183 O   0  0  0  0  0  0  0  0  0  0  0  0
   -0.3050    1.7374   -1.2125 C   0  0  0  0  0  0  0  0  0  0  0  0
   -0.2164    3.0461   -0.7402 C   0  0  0  0  0  0  0  0  0  0  0  0
    0.4700    3.2971    0.4857 C   0  0  0  0  0  0  0  0  0  0  0  0
    0.9905    2.1937    1.1675 C   0  0  0  0  0  0  0  0  0  0  0  0
    0.8808    0.8953    0.6932 C   0  0  0  0  0  0  0  0  0  0  0  0
    0.2185    0.6442   -0.5259 C   0  0  0  0  0  0  0  0  0  0  0  0
   -5.0063   -0.7516    2.9096 F   0  0  0  0  0  0  0  0  0  0  0  0
  1  2  1  0  0  0  0
  2  3  1  0  0  0  0
  2  5  1  0  0  0  0
  3  4  1  0  0  0  0
  5  6  4  0  0  0  0
  5 10  4  0  0  0  0
  6  7  4  0  0  0  0
  7  8  4  0  0  0  0
  8  9  4  0  0  0  0
  9 10  4  0  0  0  0
 10 11  1  0  0  0  0
 11 12  4  0  0  0  0
 11 15  4  0  0  0  0
 12 13  1  0  0  0  0
 12 68  4  0  0  0  0
 13 14  1  0  0  0  0
 15 16  1  0  0  0  0
 15 67  4  0  0  0  0
 16 17  1  0  0  0  0
 17 18  1  0  0  0  0
 17 19  1  0  0  0  0
 17 20  1  0  0  0  0
 20 21  1  0  0  0  0
 21 22  1  0  0  0  0
 22 23  1  0  0  0  0
 22 66  2  0  0  0  0
 23 24  1  0  0  0  0
 23 65  1  0  0  0  0
 24 25  1  0  0  0  0
 25 26  1  0  0  0  0
 25 63  1  0  0  0  0
 26 27  1  0  0  0  0
 26 62  2  0  0  0  0
 27 28  1  0  0  0  0
 27 55  1  0  0  0  0
 28 29  1  0  0  0  0
 29 30  1  0  0  0  0
 29 54  2  0  0  0  0
 30 31  1  0  0  0  0
 30 34  1  0  0  0  0
 31 32  1  0  0  0  0
 31 33  1  0  0  0  0
 34 35  1  0  0  0  0
 34 53  1  0  0  0  0
 35 36  1  0  0  0  0
 35 52  2  0  0  0  0
 36 37  1  0  0  0  0
 36 51  1  0  0  0  0
 36 73  1  0  0  0  0
 37 38  1  0  0  0  0
 38 39  1  0  0  0  0
 39 40  1  0  0  0  0
 39 50  1  0  0  0  0
 40 41  1  0  0  0  0
 40 49  2  0  0  0  0
 41 42  1  0  0  0  0
 42 43  1  0  0  0  0
 43 44  1  0  0  0  0
 43 47  1  0  0  0  0
 43 48  1  0  0  0  0
 44 45  1  0  0  0  0
 44 46  1  0  0  0  0
 50 51  1  0  0  0  0
 55 56  1  0  0  0  0
 56 57  1  0  0  0  0
 56 61  1  0  0  0  0
 57 58  1  0  0  0  0
 58 59  1  0  0  0  0
 58 71  1  0  0  0  0
 59 60  1  0  0  0  0
 60 61  1  0  0  0  0
 63 64  1  0  0  0  0
 64 65  1  0  0  0  0
 67 68  4  0  0  0  0
 67 72  4  0  0  0  0
 68 69  4  0  0  0  0
 69 70  4  0  0  0  0
 70 71  4  0  0  0  0
 71 72  4  0  0  0  0
M  END
$$$$
