mol_ETKDG2_138
  PyMOL3.1          3D                             0

 73 79  0  0  0  0  0  0  0  0999 V2000
    0.7131   -5.2405   -0.5038 C   0  0  0  0  0  0  0  0  0  0  0  0
    1.5886   -4.0438   -0.5673 C   0  0  0  0  0  0  0  0  0  0  0  0
    2.9474   -4.2859   -0.2192 O   0  0  0  0  0  0  0  0  0  0  0  0
    3.2503   -4.4078    1.1456 C   0  0  0  0  0  0  0  0  0  0  0  0
    1.5923   -3.4064   -1.9016 C   0  0  0  0  0  0  0  0  0  0  0  0
    2.3818   -3.9295   -2.8280 N   0  0  0  0  0  0  0  0  0  0  0  0
    2.4140   -3.4383   -4.0884 C   0  0  0  0  0  0  0  0  0  0  0  0
    1.6054   -2.3638   -4.4748 C   0  0  0  0  0  0  0  0  0  0  0  0
    0.7608   -1.7950   -3.5141 C   0  0  0  0  0  0  0  0  0  0  0  0
    0.7761   -2.3179   -2.2029 C   0  0  0  0  0  0  0  0  0  0  0  0
   -0.0732   -1.6899   -1.2160 C   0  0  0  0  0  0  0  0  0  0  0  0
   -1.3989   -1.9641   -1.1017 N   0  0  0  0  0  0  0  0  0  0  0  0
   -2.2044   -2.9700   -1.8876 C   0  0  0  0  0  0  0  0  0  0  0  0
   -3.0287   -2.3550   -2.9429 C   0  0  0  0  0  0  0  0  0  0  0  0
    0.3387   -0.7683   -0.2090 C   0  0  0  0  0  0  0  0  0  0  0  0
    1.7191   -0.2685    0.1782 C   0  0  0  0  0  0  0  0  0  0  0  0
    2.2199    1.0638   -0.5412 C   0  0  0  0  0  0  0  0  0  0  0  0
    3.6853    1.2926   -0.1473 C   0  0  0  0  0  0  0  0  0  0  0  0
    2.2369    0.9442   -2.0242 C   0  0  0  0  0  0  0  0  0  0  0  0
    1.3807    2.2717   -0.1467 C   0  0  0  0  0  0  0  0  0  0  0  0
    1.7191    2.9261    1.1729 O   0  0  0  0  0  0  0  0  0  0  0  0
    1.7700    4.3451    1.3719 C   0  0  0  0  0  0  0  0  0  0  0  0
    2.0725    4.8970    2.7589 C   0  0  0  0  0  0  0  0  0  0  0  0
    2.3878    3.8299    3.6657 N   0  0  0  0  0  0  0  0  0  0  0  0
    2.6815    4.1793    4.9814 N   0  0  0  0  0  0  0  0  0  0  0  0
    1.9734    3.6472    6.0303 C   0  0  0  0  0  0  0  0  0  0  0  0
    0.9147    2.6173    5.7389 C   0  0  0  0  0  0  0  0  0  0  0  0
    0.8870    1.5663    6.7383 N   0  0  0  0  0  0  0  0  0  0  0  0
    1.5048    0.3796    6.5654 C   0  0  0  0  0  0  0  0  0  0  0  0
    1.2447   -0.6790    7.5931 C   0  0  0  0  0  0  0  0  0  0  0  0
    2.3591   -0.8169    8.6935 C   0  0  0  0  0  0  0  0  0  0  0  0
    2.0179   -1.8404    9.7311 C   0  0  0  0  0  0  0  0  0  0  0  0
    2.7035    0.5136    9.3262 C   0  0  0  0  0  0  0  0  0  0  0  0
    1.0280   -1.9248    6.8380 N   0  0  0  0  0  0  0  0  0  0  0  0
   -0.2354   -2.1897    6.3620 C   0  0  0  0  0  0  0  0  0  0  0  0
   -0.6165   -3.3833    5.5155 C   0  0  0  0  0  0  0  0  0  0  0  0
   -0.3569   -3.0029    4.0628 C   0  0  0  0  0  0  0  0  0  0  0  0
   -0.7407   -4.1276    3.1295 C   0  0  0  0  0  0  0  0  0  0  0  0
   -2.1554   -4.4630    3.3818 N   0  0  0  0  0  0  0  0  0  0  0  0
   -3.0871   -4.4068    2.3674 C   0  0  0  0  0  0  0  0  0  0  0  0
   -4.4164   -4.0747    2.6156 C   0  0  0  0  0  0  0  0  0  0  0  0
   -5.5505   -3.8054    2.7071 C   0  0  0  0  0  0  0  0  0  0  0  0
   -6.8840   -3.4295    3.0013 C   0  0  0  0  0  0  0  0  0  0  0  0
   -7.6904   -3.3794    1.8342 N   0  0  0  0  0  0  0  0  0  0  0  0
   -9.0441   -3.7372    1.8395 C   0  0  0  0  0  0  0  0  0  0  0  0
   -7.1906   -2.8309    0.6370 C   0  0  0  0  0  0  0  0  0  0  0  0
   -6.8975   -2.0501    3.6750 C   0  0  0  0  0  0  0  0  0  0  0  0
   -7.4438   -4.4138    4.0101 C   0  0  0  0  0  0  0  0  0  0  0  0
   -2.7554   -4.5948    1.2018 O   0  0  0  0  0  0  0  0  0  0  0  0
   -2.5015   -4.8134    4.7334 C   0  0  0  0  0  0  0  0  0  0  0  0
   -2.0989   -3.7554    5.6962 C   0  0  0  0  0  0  0  0  0  0  0  0
   -1.1282   -1.3619    6.6366 O   0  0  0  0  0  0  0  0  0  0  0  0
    2.1951   -2.7597    6.4896 C   0  0  0  0  0  0  0  0  0  0  0  0
    2.1388    0.1728    5.5439 O   0  0  0  0  0  0  0  0  0  0  0  0
   -0.5125    3.2886    5.6409 C   0  0  0  0  0  0  0  0  0  0  0  0
   -1.6500    2.3192    5.2097 C   0  0  0  0  0  0  0  0  0  0  0  0
   -1.5119    2.0837    3.7399 C   0  0  0  0  0  0  0  0  0  0  0  0
   -2.5931    1.2837    3.2075 N   0  0  0  0  0  0  0  0  0  0  0  0
   -3.9467    1.7424    3.5588 C   0  0  0  0  0  0  0  0  0  0  0  0
   -4.0404    2.1142    5.0474 C   0  0  0  0  0  0  0  0  0  0  0  0
   -2.9219    2.9715    5.4676 O   0  0  0  0  0  0  0  0  0  0  0  0
    2.1642    4.0120    7.2072 O   0  0  0  0  0  0  0  0  0  0  0  0
    3.8252    5.0867    5.1430 C   0  0  0  0  0  0  0  0  0  0  0  0
    3.6444    6.3070    4.2077 C   0  0  0  0  0  0  0  0  0  0  0  0
    3.2633    5.9071    2.7662 C   0  0  0  0  0  0  0  0  0  0  0  0
    1.5903    5.1876    0.4699 O   0  0  0  0  0  0  0  0  0  0  0  0
   -0.8617   -0.4691    0.4695 C   0  0  0  0  0  0  0  0  0  0  0  0
   -1.8914   -1.2222   -0.0991 C   0  0  0  0  0  0  0  0  0  0  0  0
   -3.2190   -1.1277    0.4412 C   0  0  0  0  0  0  0  0  0  0  0  0
   -3.4061   -0.2937    1.5463 C   0  0  0  0  0  0  0  0  0  0  0  0
   -2.3633    0.4566    2.1045 C   0  0  0  0  0  0  0  0  0  0  0  0
   -1.0631    0.3716    1.5597 C   0  0  0  0  0  0  0  0  0  0  0  0
    0.0898   -4.5191    5.8727 F   0  0  0  0  0  0  0  0  0  0  0  0
  1  2  1  0  0  0  0
  2  3  1  0  0  0  0
  2  5  1  0  0  0  0
  3  4  1  0  0  0  0
  5  6  4  0  0  0  0
  5 10  4  0  0  0  0
  6  7  4  0  0  0  0
  7  8  4  0  0  0  0
  8  9  4  0  0  0  0
  9 10  4  0  0  0  0
 10 11  1  0  0  0  0
 11 12  4  0  0  0  0
 11 15  4  0  0  0  0
 12 13  1  0  0  0  0
 12 68  4  0  0  0  0
 13 14  1  0  0  0  0
 15 16  1  0  0  0  0
 15 67  4  0  0  0  0
 16 17  1  0  0  0  0
 17 18  1  0  0  0  0
 17 19  1  0  0  0  0
 17 20  1  0  0  0  0
 20 21  1  0  0  0  0
 21 22  1  0  0  0  0
 22 23  1  0  0  0  0
 22 66  2  0  0  0  0
 23 24  1  0  0  0  0
 23 65  1  0  0  0  0
 24 25  1  0  0  0  0
 25 26  1  0  0  0  0
 25 63  1  0  0  0  0
 26 27  1  0  0  0  0
 26 62  2  0  0  0  0
 27 28  1  0  0  0  0
 27 55  1  0  0  0  0
 28 29  1  0  0  0  0
 29 30  1  0  0  0  0
 29 54  2  0  0  0  0
 30 31  1  0  0  0  0
 30 34  1  0  0  0  0
 31 32  1  0  0  0  0
 31 33  1  0  0  0  0
 34 35  1  0  0  0  0
 34 53  1  0  0  0  0
 35 36  1  0  0  0  0
 35 52  2  0  0  0  0
 36 37  1  0  0  0  0
 36 51  1  0  0  0  0
 36 73  1  0  0  0  0
 37 38  1  0  0  0  0
 38 39  1  0  0  0  0
 39 40  1  0  0  0  0
 39 50  1  0  0  0  0
 40 41  1  0  0  0  0
 40 49  2  0  0  0  0
 41 42  1  0  0  0  0
 42 43  1  0  0  0  0
 43 44  1  0  0  0  0
 43 47  1  0  0  0  0
 43 48  1  0  0  0  0
 44 45  1  0  0  0  0
 44 46  1  0  0  0  0
 50 51  1  0  0  0  0
 55 56  1  0  0  0  0
 56 57  1  0  0  0  0
 56 61  1  0  0  0  0
 57 58  1  0  0  0  0
 58 59  1  0  0  0  0
 58 71  1  0  0  0  0
 59 60  1  0  0  0  0
 60 61  1  0  0  0  0
 63 64  1  0  0  0  0
 64 65  1  0  0  0  0
 67 68  4  0  0  0  0
 67 72  4  0  0  0  0
 68 69  4  0  0  0  0
 69 70  4  0  0  0  0
 70 71  4  0  0  0  0
 71 72  4  0  0  0  0
M  END
$$$$
