mol_ETKDG5_294
  PyMOL3.1          3D                             0

 73 79  0  0  0  0  0  0  0  0999 V2000
    0.5705   -4.9200    3.1637 C   0  0  0  0  0  0  0  0  0  0  0  0
    1.6400   -4.0501    2.6155 C   0  0  0  0  0  0  0  0  0  0  0  0
    2.1134   -3.0459    3.4738 O   0  0  0  0  0  0  0  0  0  0  0  0
    1.3263   -1.9038    3.6512 C   0  0  0  0  0  0  0  0  0  0  0  0
    2.8206   -4.8031    2.1445 C   0  0  0  0  0  0  0  0  0  0  0  0
    3.6076   -5.3621    3.0531 N   0  0  0  0  0  0  0  0  0  0  0  0
    4.6713   -6.1160    2.6934 C   0  0  0  0  0  0  0  0  0  0  0  0
    4.9814   -6.3520    1.3498 C   0  0  0  0  0  0  0  0  0  0  0  0
    4.1589   -5.7733    0.3753 C   0  0  0  0  0  0  0  0  0  0  0  0
    3.0863   -4.9618    0.7889 C   0  0  0  0  0  0  0  0  0  0  0  0
    2.2777   -4.3199   -0.2215 C   0  0  0  0  0  0  0  0  0  0  0  0
    1.1998   -4.9129   -0.7889 N   0  0  0  0  0  0  0  0  0  0  0  0
    0.6266   -6.2707   -0.4797 C   0  0  0  0  0  0  0  0  0  0  0  0
    0.9316   -7.2781   -1.4967 C   0  0  0  0  0  0  0  0  0  0  0  0
    2.4296   -2.9815   -0.7053 C   0  0  0  0  0  0  0  0  0  0  0  0
    3.3695   -1.8683   -0.2978 C   0  0  0  0  0  0  0  0  0  0  0  0
    4.7545   -1.7418   -1.0825 C   0  0  0  0  0  0  0  0  0  0  0  0
    5.6932   -2.8967   -0.7692 C   0  0  0  0  0  0  0  0  0  0  0  0
    5.4494   -0.5170   -0.5547 C   0  0  0  0  0  0  0  0  0  0  0  0
    4.6132   -1.6262   -2.5964 C   0  0  0  0  0  0  0  0  0  0  0  0
    4.4741   -0.2222   -3.1703 O   0  0  0  0  0  0  0  0  0  0  0  0
    5.0735    0.2144   -4.4039 C   0  0  0  0  0  0  0  0  0  0  0  0
    4.7997    1.6243   -4.9293 C   0  0  0  0  0  0  0  0  0  0  0  0
    4.1241    2.4212   -3.9498 N   0  0  0  0  0  0  0  0  0  0  0  0
    3.8315    3.7483   -4.2760 N   0  0  0  0  0  0  0  0  0  0  0  0
    2.5525    4.2362   -4.1922 C   0  0  0  0  0  0  0  0  0  0  0  0
    1.4592    3.3073   -3.7525 C   0  0  0  0  0  0  0  0  0  0  0  0
    0.4554    3.9766   -2.9486 N   0  0  0  0  0  0  0  0  0  0  0  0
    0.4025    3.8898   -1.6108 C   0  0  0  0  0  0  0  0  0  0  0  0
   -0.8008    4.4809   -0.9503 C   0  0  0  0  0  0  0  0  0  0  0  0
   -0.5083    5.8379   -0.2201 C   0  0  0  0  0  0  0  0  0  0  0  0
   -1.7183    6.4335    0.4195 C   0  0  0  0  0  0  0  0  0  0  0  0
    0.1937    6.8183   -1.1204 C   0  0  0  0  0  0  0  0  0  0  0  0
   -1.3242    3.4283   -0.0672 N   0  0  0  0  0  0  0  0  0  0  0  0
   -2.1808    2.4938   -0.6051 C   0  0  0  0  0  0  0  0  0  0  0  0
   -2.7102    1.2840    0.1301 C   0  0  0  0  0  0  0  0  0  0  0  0
   -1.6095    0.2393    0.0950 C   0  0  0  0  0  0  0  0  0  0  0  0
   -2.0364   -1.0283    0.7795 C   0  0  0  0  0  0  0  0  0  0  0  0
   -3.2607   -1.5163    0.1377 N   0  0  0  0  0  0  0  0  0  0  0  0
   -3.3108   -2.7891   -0.3918 C   0  0  0  0  0  0  0  0  0  0  0  0
   -4.0393   -3.1065   -1.5385 C   0  0  0  0  0  0  0  0  0  0  0  0
   -4.5911   -3.5176   -2.4842 C   0  0  0  0  0  0  0  0  0  0  0  0
   -5.3133   -3.8148   -3.6703 C   0  0  0  0  0  0  0  0  0  0  0  0
   -5.5134   -5.2163   -3.8068 N   0  0  0  0  0  0  0  0  0  0  0  0
   -6.6621   -5.8377   -3.2878 C   0  0  0  0  0  0  0  0  0  0  0  0
   -4.4573   -6.0653   -4.2161 C   0  0  0  0  0  0  0  0  0  0  0  0
   -6.6409   -3.0679   -3.6286 C   0  0  0  0  0  0  0  0  0  0  0  0
   -4.5807   -3.2954   -4.8905 C   0  0  0  0  0  0  0  0  0  0  0  0
   -2.6448   -3.6798    0.1027 O   0  0  0  0  0  0  0  0  0  0  0  0
   -4.3655   -0.5896    0.0846 C   0  0  0  0  0  0  0  0  0  0  0  0
   -3.9732    0.7069   -0.5359 C   0  0  0  0  0  0  0  0  0  0  0  0
   -2.5148    2.6416   -1.7948 O   0  0  0  0  0  0  0  0  0  0  0  0
   -0.8043    3.3296    1.3057 C   0  0  0  0  0  0  0  0  0  0  0  0
    1.2436    3.2493   -1.0099 O   0  0  0  0  0  0  0  0  0  0  0  0
    0.7585    2.6537   -5.0061 C   0  0  0  0  0  0  0  0  0  0  0  0
   -0.2967    1.5736   -4.6600 C   0  0  0  0  0  0  0  0  0  0  0  0
    0.4300    0.3241   -4.2704 C   0  0  0  0  0  0  0  0  0  0  0  0
   -0.4776   -0.7811   -4.0642 N   0  0  0  0  0  0  0  0  0  0  0  0
   -1.4196   -1.0066   -5.1763 C   0  0  0  0  0  0  0  0  0  0  0  0
   -2.0822    0.2969   -5.6144 C   0  0  0  0  0  0  0  0  0  0  0  0
   -1.0788    1.3404   -5.8508 O   0  0  0  0  0  0  0  0  0  0  0  0
    2.2710    5.4072   -4.4987 O   0  0  0  0  0  0  0  0  0  0  0  0
    4.9783    4.5758   -4.6392 C   0  0  0  0  0  0  0  0  0  0  0  0
    5.7967    3.8438   -5.7260 C   0  0  0  0  0  0  0  0  0  0  0  0
    6.0974    2.3805   -5.3511 C   0  0  0  0  0  0  0  0  0  0  0  0
    5.8301   -0.4954   -5.0846 O   0  0  0  0  0  0  0  0  0  0  0  0
    1.3880   -2.8532   -1.6437 C   0  0  0  0  0  0  0  0  0  0  0  0
    0.6616   -4.0456   -1.6592 C   0  0  0  0  0  0  0  0  0  0  0  0
   -0.4798   -4.1568   -2.5120 C   0  0  0  0  0  0  0  0  0  0  0  0
   -0.8138   -3.0421   -3.2790 C   0  0  0  0  0  0  0  0  0  0  0  0
   -0.0861   -1.8598   -3.2578 C   0  0  0  0  0  0  0  0  0  0  0  0
    1.0388   -1.7427   -2.4115 C   0  0  0  0  0  0  0  0  0  0  0  0
   -3.0807    1.6069    1.4227 F   0  0  0  0  0  0  0  0  0  0  0  0
  1  2  1  0  0  0  0
  2  3  1  0  0  0  0
  2  5  1  0  0  0  0
  3  4  1  0  0  0  0
  5  6  4  0  0  0  0
  5 10  4  0  0  0  0
  6  7  4  0  0  0  0
  7  8  4  0  0  0  0
  8  9  4  0  0  0  0
  9 10  4  0  0  0  0
 10 11  1  0  0  0  0
 11 12  4  0  0  0  0
 11 15  4  0  0  0  0
 12 13  1  0  0  0  0
 12 68  4  0  0  0  0
 13 14  1  0  0  0  0
 15 16  1  0  0  0  0
 15 67  4  0  0  0  0
 16 17  1  0  0  0  0
 17 18  1  0  0  0  0
 17 19  1  0  0  0  0
 17 20  1  0  0  0  0
 20 21  1  0  0  0  0
 21 22  1  0  0  0  0
 22 23  1  0  0  0  0
 22 66  2  0  0  0  0
 23 24  1  0  0  0  0
 23 65  1  0  0  0  0
 24 25  1  0  0  0  0
 25 26  1  0  0  0  0
 25 63  1  0  0  0  0
 26 27  1  0  0  0  0
 26 62  2  0  0  0  0
 27 28  1  0  0  0  0
 27 55  1  0  0  0  0
 28 29  1  0  0  0  0
 29 30  1  0  0  0  0
 29 54  2  0  0  0  0
 30 31  1  0  0  0  0
 30 34  1  0  0  0  0
 31 32  1  0  0  0  0
 31 33  1  0  0  0  0
 34 35  1  0  0  0  0
 34 53  1  0  0  0  0
 35 36  1  0  0  0  0
 35 52  2  0  0  0  0
 36 37  1  0  0  0  0
 36 51  1  0  0  0  0
 36 73  1  0  0  0  0
 37 38  1  0  0  0  0
 38 39  1  0  0  0  0
 39 40  1  0  0  0  0
 39 50  1  0  0  0  0
 40 41  1  0  0  0  0
 40 49  2  0  0  0  0
 41 42  1  0  0  0  0
 42 43  1  0  0  0  0
 43 44  1  0  0  0  0
 43 47  1  0  0  0  0
 43 48  1  0  0  0  0
 44 45  1  0  0  0  0
 44 46  1  0  0  0  0
 50 51  1  0  0  0  0
 55 56  1  0  0  0  0
 56 57  1  0  0  0  0
 56 61  1  0  0  0  0
 57 58  1  0  0  0  0
 58 59  1  0  0  0  0
 58 71  1  0  0  0  0
 59 60  1  0  0  0  0
 60 61  1  0  0  0  0
 63 64  1  0  0  0  0
 64 65  1  0  0  0  0
 67 68  4  0  0  0  0
 67 72  4  0  0  0  0
 68 69  4  0  0  0  0
 69 70  4  0  0  0  0
 70 71  4  0  0  0  0
 71 72  4  0  0  0  0
M  END
$$$$
