mol_ETKDG3_175
  PyMOL3.1          3D                             0

 73 79  0  0  0  0  0  0  0  0999 V2000
   -2.8709    5.0137   -1.0954 C   0  0  0  0  0  0  0  0  0  0  0  0
   -2.8351    3.9066   -0.1053 C   0  0  0  0  0  0  0  0  0  0  0  0
   -2.2788    4.2845    1.1518 O   0  0  0  0  0  0  0  0  0  0  0  0
   -0.8885    4.4133    1.2190 C   0  0  0  0  0  0  0  0  0  0  0  0
   -4.1710    3.3490    0.1781 C   0  0  0  0  0  0  0  0  0  0  0  0
   -4.9771    4.0774    0.9368 N   0  0  0  0  0  0  0  0  0  0  0  0
   -6.2294    3.6761    1.2222 C   0  0  0  0  0  0  0  0  0  0  0  0
   -6.7427    2.4846    0.7196 C   0  0  0  0  0  0  0  0  0  0  0  0
   -5.9193    1.7044   -0.0865 C   0  0  0  0  0  0  0  0  0  0  0  0
   -4.6120    2.1327   -0.3413 C   0  0  0  0  0  0  0  0  0  0  0  0
   -3.8011    1.2627   -1.1520 C   0  0  0  0  0  0  0  0  0  0  0  0
   -3.7693    1.3264   -2.5007 N   0  0  0  0  0  0  0  0  0  0  0  0
   -4.4207    2.3577   -3.3855 C   0  0  0  0  0  0  0  0  0  0  0  0
   -5.5712    1.8765   -4.1295 C   0  0  0  0  0  0  0  0  0  0  0  0
   -2.9348    0.2304   -0.6860 C   0  0  0  0  0  0  0  0  0  0  0  0
   -2.4484   -0.1358    0.6784 C   0  0  0  0  0  0  0  0  0  0  0  0
   -3.3103   -1.1165    1.5610 C   0  0  0  0  0  0  0  0  0  0  0  0
   -4.4714   -0.3859    2.2206 C   0  0  0  0  0  0  0  0  0  0  0  0
   -2.4365   -1.5476    2.6939 C   0  0  0  0  0  0  0  0  0  0  0  0
   -3.8436   -2.3533    0.8211 C   0  0  0  0  0  0  0  0  0  0  0  0
   -2.9778   -3.5891    0.9336 O   0  0  0  0  0  0  0  0  0  0  0  0
   -3.4268   -4.8870    1.3020 C   0  0  0  0  0  0  0  0  0  0  0  0
   -2.4093   -6.0179    1.4182 C   0  0  0  0  0  0  0  0  0  0  0  0
   -1.1042   -5.4819    1.6325 N   0  0  0  0  0  0  0  0  0  0  0  0
   -0.0396   -6.3525    1.8435 N   0  0  0  0  0  0  0  0  0  0  0  0
    1.1220   -6.2416    1.1212 C   0  0  0  0  0  0  0  0  0  0  0  0
    1.2042   -5.1813    0.0609 C   0  0  0  0  0  0  0  0  0  0  0  0
    2.4912   -4.5273    0.0229 N   0  0  0  0  0  0  0  0  0  0  0  0
    2.7057   -3.3095    0.5461 C   0  0  0  0  0  0  0  0  0  0  0  0
    4.0266   -2.6847    0.2496 C   0  0  0  0  0  0  0  0  0  0  0  0
    5.0377   -2.7855    1.4363 C   0  0  0  0  0  0  0  0  0  0  0  0
    6.4127   -2.3563    1.0595 C   0  0  0  0  0  0  0  0  0  0  0  0
    5.0134   -4.1203    2.1131 C   0  0  0  0  0  0  0  0  0  0  0  0
    3.7304   -1.2955   -0.1325 N   0  0  0  0  0  0  0  0  0  0  0  0
    3.2757   -1.0310   -1.4059 C   0  0  0  0  0  0  0  0  0  0  0  0
    2.8544    0.3341   -1.8901 C   0  0  0  0  0  0  0  0  0  0  0  0
    1.5217    0.6520   -1.2473 C   0  0  0  0  0  0  0  0  0  0  0  0
    1.0378    1.9959   -1.5984 C   0  0  0  0  0  0  0  0  0  0  0  0
    1.0349    2.1854   -3.0491 N   0  0  0  0  0  0  0  0  0  0  0  0
   -0.0211    2.7858   -3.6679 C   0  0  0  0  0  0  0  0  0  0  0  0
   -0.0145    2.8984   -5.0438 C   0  0  0  0  0  0  0  0  0  0  0  0
   -0.0299    3.1101   -6.1803 C   0  0  0  0  0  0  0  0  0  0  0  0
    0.1572    3.2428   -7.5729 C   0  0  0  0  0  0  0  0  0  0  0  0
    0.2025    4.6247   -7.9341 N   0  0  0  0  0  0  0  0  0  0  0  0
    1.3438    5.3929   -7.6438 C   0  0  0  0  0  0  0  0  0  0  0  0
   -0.9287    5.3125   -8.4206 C   0  0  0  0  0  0  0  0  0  0  0  0
    1.4604    2.5580   -7.9859 C   0  0  0  0  0  0  0  0  0  0  0  0
   -0.9426    2.5316   -8.3220 C   0  0  0  0  0  0  0  0  0  0  0  0
   -0.9751    3.2199   -3.0285 O   0  0  0  0  0  0  0  0  0  0  0  0
    2.1806    1.7422   -3.7861 C   0  0  0  0  0  0  0  0  0  0  0  0
    2.6684    0.4210   -3.4084 C   0  0  0  0  0  0  0  0  0  0  0  0
    3.1927   -1.9871   -2.1962 O   0  0  0  0  0  0  0  0  0  0  0  0
    3.7926   -0.2508    0.8998 C   0  0  0  0  0  0  0  0  0  0  0  0
    1.8058   -2.7228    1.1190 O   0  0  0  0  0  0  0  0  0  0  0  0
    0.9153   -5.7919   -1.3616 C   0  0  0  0  0  0  0  0  0  0  0  0
    0.9244   -4.7517   -2.5129 C   0  0  0  0  0  0  0  0  0  0  0  0
   -0.3129   -3.9299   -2.3960 C   0  0  0  0  0  0  0  0  0  0  0  0
   -0.4512   -2.9953   -3.4914 N   0  0  0  0  0  0  0  0  0  0  0  0
   -0.3471   -3.6256   -4.8243 C   0  0  0  0  0  0  0  0  0  0  0  0
    0.8797   -4.5438   -4.8953 C   0  0  0  0  0  0  0  0  0  0  0  0
    0.9213   -5.4765   -3.7629 O   0  0  0  0  0  0  0  0  0  0  0  0
    2.0810   -7.0089    1.2933 O   0  0  0  0  0  0  0  0  0  0  0  0
   -0.2172   -7.3292    2.9154 C   0  0  0  0  0  0  0  0  0  0  0  0
   -1.5943   -8.0057    2.7848 C   0  0  0  0  0  0  0  0  0  0  0  0
   -2.7266   -7.0112    2.5714 C   0  0  0  0  0  0  0  0  0  0  0  0
   -4.6235   -5.1512    1.5225 O   0  0  0  0  0  0  0  0  0  0  0  0
   -2.4711   -0.3738   -1.8612 C   0  0  0  0  0  0  0  0  0  0  0  0
   -2.9802    0.3353   -2.9433 C   0  0  0  0  0  0  0  0  0  0  0  0
   -2.6026   -0.0509   -4.2681 C   0  0  0  0  0  0  0  0  0  0  0  0
   -1.7588   -1.1535   -4.4018 C   0  0  0  0  0  0  0  0  0  0  0  0
   -1.2795   -1.8737   -3.3071 C   0  0  0  0  0  0  0  0  0  0  0  0
   -1.6152   -1.4620   -2.0040 C   0  0  0  0  0  0  0  0  0  0  0  0
    3.8210    1.2652   -1.5801 F   0  0  0  0  0  0  0  0  0  0  0  0
  1  2  1  0  0  0  0
  2  3  1  0  0  0  0
  2  5  1  0  0  0  0
  3  4  1  0  0  0  0
  5  6  4  0  0  0  0
  5 10  4  0  0  0  0
  6  7  4  0  0  0  0
  7  8  4  0  0  0  0
  8  9  4  0  0  0  0
  9 10  4  0  0  0  0
 10 11  1  0  0  0  0
 11 12  4  0  0  0  0
 11 15  4  0  0  0  0
 12 13  1  0  0  0  0
 12 68  4  0  0  0  0
 13 14  1  0  0  0  0
 15 16  1  0  0  0  0
 15 67  4  0  0  0  0
 16 17  1  0  0  0  0
 17 18  1  0  0  0  0
 17 19  1  0  0  0  0
 17 20  1  0  0  0  0
 20 21  1  0  0  0  0
 21 22  1  0  0  0  0
 22 23  1  0  0  0  0
 22 66  2  0  0  0  0
 23 24  1  0  0  0  0
 23 65  1  0  0  0  0
 24 25  1  0  0  0  0
 25 26  1  0  0  0  0
 25 63  1  0  0  0  0
 26 27  1  0  0  0  0
 26 62  2  0  0  0  0
 27 28  1  0  0  0  0
 27 55  1  0  0  0  0
 28 29  1  0  0  0  0
 29 30  1  0  0  0  0
 29 54  2  0  0  0  0
 30 31  1  0  0  0  0
 30 34  1  0  0  0  0
 31 32  1  0  0  0  0
 31 33  1  0  0  0  0
 34 35  1  0  0  0  0
 34 53  1  0  0  0  0
 35 36  1  0  0  0  0
 35 52  2  0  0  0  0
 36 37  1  0  0  0  0
 36 51  1  0  0  0  0
 36 73  1  0  0  0  0
 37 38  1  0  0  0  0
 38 39  1  0  0  0  0
 39 40  1  0  0  0  0
 39 50  1  0  0  0  0
 40 41  1  0  0  0  0
 40 49  2  0  0  0  0
 41 42  1  0  0  0  0
 42 43  1  0  0  0  0
 43 44  1  0  0  0  0
 43 47  1  0  0  0  0
 43 48  1  0  0  0  0
 44 45  1  0  0  0  0
 44 46  1  0  0  0  0
 50 51  1  0  0  0  0
 55 56  1  0  0  0  0
 56 57  1  0  0  0  0
 56 61  1  0  0  0  0
 57 58  1  0  0  0  0
 58 59  1  0  0  0  0
 58 71  1  0  0  0  0
 59 60  1  0  0  0  0
 60 61  1  0  0  0  0
 63 64  1  0  0  0  0
 64 65  1  0  0  0  0
 67 68  4  0  0  0  0
 67 72  4  0  0  0  0
 68 69  4  0  0  0  0
 69 70  4  0  0  0  0
 70 71  4  0  0  0  0
 71 72  4  0  0  0  0
M  END
$$$$
