mol_bioactive_24
  PyMOL3.1          3D                             0

 73 79  0  0  0  0  0  0  0  0999 V2000
    2.6958   -3.0451   -1.7429 C   0  0  0  0  0  0  0  0  0  0  0  0
    2.4681   -4.3098   -1.0581 C   0  0  0  0  0  0  0  0  0  0  0  0
    1.2200   -4.4335   -0.3668 O   0  0  0  0  0  0  0  0  0  0  0  0
    0.0033   -4.0734   -0.9397 C   0  0  0  0  0  0  0  0  0  0  0  0
    3.4471   -4.7304   -0.0684 C   0  0  0  0  0  0  0  0  0  0  0  0
    3.7187   -5.9548   -0.4867 N   0  0  0  0  0  0  0  0  0  0  0  0
    4.6598   -6.6943    0.0552 C   0  0  0  0  0  0  0  0  0  0  0  0
    5.4441   -6.2139    1.0804 C   0  0  0  0  0  0  0  0  0  0  0  0
    5.2042   -4.9223    1.5612 C   0  0  0  0  0  0  0  0  0  0  0  0
    4.1942   -4.1624    0.9849 C   0  0  0  0  0  0  0  0  0  0  0  0
    3.9440   -2.8390    1.5394 C   0  0  0  0  0  0  0  0  0  0  0  0
    4.7739   -1.7732    1.3552 N   0  0  0  0  0  0  0  0  0  0  0  0
    6.0270   -1.7197    0.5372 C   0  0  0  0  0  0  0  0  0  0  0  0
    7.2545   -1.7416    1.3278 C   0  0  0  0  0  0  0  0  0  0  0  0
    2.8137   -2.4453    2.3101 C   0  0  0  0  0  0  0  0  0  0  0  0
    1.5982   -3.2238    2.7358 C   0  0  0  0  0  0  0  0  0  0  0  0
    1.7563   -4.0337    4.0946 C   0  0  0  0  0  0  0  0  0  0  0  0
    2.8483   -5.0731    4.0341 C   0  0  0  0  0  0  0  0  0  0  0  0
    0.4884   -4.8179    4.3247 C   0  0  0  0  0  0  0  0  0  0  0  0
    2.0277   -3.1077    5.2708 C   0  0  0  0  0  0  0  0  0  0  0  0
    0.8173   -2.4011    5.8174 O   0  0  0  0  0  0  0  0  0  0  0  0
    0.5272   -2.2331    7.2072 C   0  0  0  0  0  0  0  0  0  0  0  0
   -0.7486   -1.4996    7.6019 C   0  0  0  0  0  0  0  0  0  0  0  0
   -1.6145   -1.3662    6.4669 N   0  0  0  0  0  0  0  0  0  0  0  0
   -2.8619   -0.7801    6.6527 N   0  0  0  0  0  0  0  0  0  0  0  0
   -3.2648    0.2952    5.9025 C   0  0  0  0  0  0  0  0  0  0  0  0
   -2.3014    0.8836    4.9113 C   0  0  0  0  0  0  0  0  0  0  0  0
   -2.9485    1.1937    3.6361 N   0  0  0  0  0  0  0  0  0  0  0  0
   -2.9266    0.4053    2.5464 C   0  0  0  0  0  0  0  0  0  0  0  0
   -3.5330    0.9721    1.3004 C   0  0  0  0  0  0  0  0  0  0  0  0
   -4.9511    0.4167    0.9593 C   0  0  0  0  0  0  0  0  0  0  0  0
   -5.5662    1.0763   -0.2256 C   0  0  0  0  0  0  0  0  0  0  0  0
   -5.8610    0.4209    2.1521 C   0  0  0  0  0  0  0  0  0  0  0  0
   -2.5465    0.7779    0.2312 N   0  0  0  0  0  0  0  0  0  0  0  0
   -1.5422    1.7023    0.1127 C   0  0  0  0  0  0  0  0  0  0  0  0
   -0.3986    1.6355   -0.8675 C   0  0  0  0  0  0  0  0  0  0  0  0
    0.2162    3.0093   -1.1222 C   0  0  0  0  0  0  0  0  0  0  0  0
    1.4241    2.9107   -1.9628 C   0  0  0  0  0  0  0  0  0  0  0  0
    2.3610    1.8986   -1.4555 N   0  0  0  0  0  0  0  0  0  0  0  0
    3.6879    2.1435   -1.2785 C   0  0  0  0  0  0  0  0  0  0  0  0
    4.1755    3.4316   -1.2812 C   0  0  0  0  0  0  0  0  0  0  0  0
    4.6883    4.4689   -1.3398 C   0  0  0  0  0  0  0  0  0  0  0  0
    5.1653    5.7978   -1.4260 C   0  0  0  0  0  0  0  0  0  0  0  0
    6.0781    5.9455   -2.5093 N   0  0  0  0  0  0  0  0  0  0  0  0
    6.9269    4.8845   -2.8723 C   0  0  0  0  0  0  0  0  0  0  0  0
    6.3036    7.1694   -3.1556 C   0  0  0  0  0  0  0  0  0  0  0  0
    5.8506    6.1787   -0.1230 C   0  0  0  0  0  0  0  0  0  0  0  0
    3.9773    6.7158   -1.6108 C   0  0  0  0  0  0  0  0  0  0  0  0
    4.4677    1.2043   -1.0791 O   0  0  0  0  0  0  0  0  0  0  0  0
    1.8251    0.6089   -1.1393 C   0  0  0  0  0  0  0  0  0  0  0  0
    0.6463    0.7200   -0.2569 C   0  0  0  0  0  0  0  0  0  0  0  0
   -1.5623    2.6637    0.9031 O   0  0  0  0  0  0  0  0  0  0  0  0
   -2.5946   -0.4566   -0.5692 C   0  0  0  0  0  0  0  0  0  0  0  0
   -2.3364   -0.6559    2.5704 O   0  0  0  0  0  0  0  0  0  0  0  0
   -1.6818    2.1957    5.5333 C   0  0  0  0  0  0  0  0  0  0  0  0
   -0.2192    2.6673    5.2611 C   0  0  0  0  0  0  0  0  0  0  0  0
    0.5487    1.6899    4.4810 C   0  0  0  0  0  0  0  0  0  0  0  0
    1.8049    2.1252    3.9540 N   0  0  0  0  0  0  0  0  0  0  0  0
    2.1622    3.5098    4.0364 C   0  0  0  0  0  0  0  0  0  0  0  0
    1.0833    4.4736    4.3984 C   0  0  0  0  0  0  0  0  0  0  0  0
   -0.2568    3.9520    4.5947 O   0  0  0  0  0  0  0  0  0  0  0  0
   -4.3717    0.8327    6.0612 O   0  0  0  0  0  0  0  0  0  0  0  0
   -3.7107   -1.4200    7.6511 C   0  0  0  0  0  0  0  0  0  0  0  0
   -2.9072   -1.6072    8.9552 C   0  0  0  0  0  0  0  0  0  0  0  0
   -1.5370   -2.2355    8.7218 C   0  0  0  0  0  0  0  0  0  0  0  0
    1.2581   -2.6397    8.1228 O   0  0  0  0  0  0  0  0  0  0  0  0
    3.0437   -1.0772    2.5745 C   0  0  0  0  0  0  0  0  0  0  0  0
    4.2522   -0.7113    1.9931 C   0  0  0  0  0  0  0  0  0  0  0  0
    4.7025    0.6447    2.1218 C   0  0  0  0  0  0  0  0  0  0  0  0
    3.8710    1.5472    2.7902 C   0  0  0  0  0  0  0  0  0  0  0  0
    2.6407    1.1777    3.3357 C   0  0  0  0  0  0  0  0  0  0  0  0
    2.2267   -0.1643    3.2486 C   0  0  0  0  0  0  0  0  0  0  0  0
   -0.7995    1.1485   -2.0943 F   0  0  0  0  0  0  0  0  0  0  0  0
  1  2  1  0  0  0  0
  2  3  1  0  0  0  0
  2  5  1  0  0  0  0
  3  4  1  0  0  0  0
  5  6  4  0  0  0  0
  5 10  4  0  0  0  0
  6  7  4  0  0  0  0
  7  8  4  0  0  0  0
  8  9  4  0  0  0  0
  9 10  4  0  0  0  0
 10 11  1  0  0  0  0
 11 12  4  0  0  0  0
 11 15  4  0  0  0  0
 12 13  1  0  0  0  0
 12 68  4  0  0  0  0
 13 14  1  0  0  0  0
 15 16  1  0  0  0  0
 15 67  4  0  0  0  0
 16 17  1  0  0  0  0
 17 18  1  0  0  0  0
 17 19  1  0  0  0  0
 17 20  1  0  0  0  0
 20 21  1  0  0  0  0
 21 22  1  0  0  0  0
 22 23  1  0  0  0  0
 22 66  2  0  0  0  0
 23 24  1  0  0  0  0
 23 65  1  0  0  0  0
 24 25  1  0  0  0  0
 25 26  1  0  0  0  0
 25 63  1  0  0  0  0
 26 27  1  0  0  0  0
 26 62  2  0  0  0  0
 27 28  1  0  0  0  0
 27 55  1  0  0  0  0
 28 29  1  0  0  0  0
 29 30  1  0  0  0  0
 29 54  2  0  0  0  0
 30 31  1  0  0  0  0
 30 34  1  0  0  0  0
 31 32  1  0  0  0  0
 31 33  1  0  0  0  0
 34 35  1  0  0  0  0
 34 53  1  0  0  0  0
 35 36  1  0  0  0  0
 35 52  2  0  0  0  0
 36 37  1  0  0  0  0
 36 51  1  0  0  0  0
 36 73  1  0  0  0  0
 37 38  1  0  0  0  0
 38 39  1  0  0  0  0
 39 40  1  0  0  0  0
 39 50  1  0  0  0  0
 40 41  1  0  0  0  0
 40 49  2  0  0  0  0
 41 42  1  0  0  0  0
 42 43  1  0  0  0  0
 43 44  1  0  0  0  0
 43 47  1  0  0  0  0
 43 48  1  0  0  0  0
 44 45  1  0  0  0  0
 44 46  1  0  0  0  0
 50 51  1  0  0  0  0
 55 56  1  0  0  0  0
 56 57  1  0  0  0  0
 56 61  1  0  0  0  0
 57 58  1  0  0  0  0
 58 59  1  0  0  0  0
 58 71  1  0  0  0  0
 59 60  1  0  0  0  0
 60 61  1  0  0  0  0
 63 64  1  0  0  0  0
 64 65  1  0  0  0  0
 67 68  4  0  0  0  0
 67 72  4  0  0  0  0
 68 69  4  0  0  0  0
 69 70  4  0  0  0  0
 70 71  4  0  0  0  0
 71 72  4  0  0  0  0
M  END
$$$$
