mol_ETKDG4_227
  PyMOL3.1          3D                             0

 73 79  0  0  0  0  0  0  0  0999 V2000
    3.5506   -3.7096    2.2346 C   0  0  0  0  0  0  0  0  0  0  0  0
    2.4268   -4.4138    1.6093 C   0  0  0  0  0  0  0  0  0  0  0  0
    1.5799   -5.1295    2.4902 O   0  0  0  0  0  0  0  0  0  0  0  0
    0.8289   -4.3916    3.4239 C   0  0  0  0  0  0  0  0  0  0  0  0
    2.8754   -5.3575    0.5709 C   0  0  0  0  0  0  0  0  0  0  0  0
    3.5445   -6.4259    0.9643 N   0  0  0  0  0  0  0  0  0  0  0  0
    3.9882   -7.3390    0.0787 C   0  0  0  0  0  0  0  0  0  0  0  0
    3.7917   -7.1804   -1.2945 C   0  0  0  0  0  0  0  0  0  0  0  0
    3.0875   -6.0496   -1.7334 C   0  0  0  0  0  0  0  0  0  0  0  0
    2.6445   -5.1237   -0.7805 C   0  0  0  0  0  0  0  0  0  0  0  0
    1.9139   -3.9632   -1.2276 C   0  0  0  0  0  0  0  0  0  0  0  0
    0.6021   -4.0192   -1.5446 N   0  0  0  0  0  0  0  0  0  0  0  0
   -0.3055   -5.2162   -1.4963 C   0  0  0  0  0  0  0  0  0  0  0  0
   -0.6504   -5.7222   -2.8299 C   0  0  0  0  0  0  0  0  0  0  0  0
    2.3914   -2.6296   -1.3127 C   0  0  0  0  0  0  0  0  0  0  0  0
    3.7351   -2.0405   -0.9698 C   0  0  0  0  0  0  0  0  0  0  0  0
    4.8030   -2.0499   -2.1413 C   0  0  0  0  0  0  0  0  0  0  0  0
    6.0972   -1.4460   -1.6077 C   0  0  0  0  0  0  0  0  0  0  0  0
    5.1761   -3.4291   -2.5630 C   0  0  0  0  0  0  0  0  0  0  0  0
    4.3108   -1.2720   -3.3159 C   0  0  0  0  0  0  0  0  0  0  0  0
    4.5566    0.2136   -3.3074 O   0  0  0  0  0  0  0  0  0  0  0  0
    5.0025    0.9483   -4.4452 C   0  0  0  0  0  0  0  0  0  0  0  0
    5.1232    2.4531   -4.3463 C   0  0  0  0  0  0  0  0  0  0  0  0
    4.9688    2.9082   -3.0005 N   0  0  0  0  0  0  0  0  0  0  0  0
    5.0877    4.2788   -2.7722 N   0  0  0  0  0  0  0  0  0  0  0  0
    4.1092    4.9821   -2.1273 C   0  0  0  0  0  0  0  0  0  0  0  0
    2.9031    4.2437   -1.6512 C   0  0  0  0  0  0  0  0  0  0  0  0
    2.4460    4.6747   -0.3506 N   0  0  0  0  0  0  0  0  0  0  0  0
    2.6365    3.9551    0.7619 C   0  0  0  0  0  0  0  0  0  0  0  0
    1.9263    4.4081    1.9888 C   0  0  0  0  0  0  0  0  0  0  0  0
    2.7809    5.2930    2.9509 C   0  0  0  0  0  0  0  0  0  0  0  0
    1.9806    5.8638    4.0754 C   0  0  0  0  0  0  0  0  0  0  0  0
    3.5736    6.3450    2.2298 C   0  0  0  0  0  0  0  0  0  0  0  0
    1.4191    3.1881    2.6224 N   0  0  0  0  0  0  0  0  0  0  0  0
    0.2176    2.6750    2.1710 C   0  0  0  0  0  0  0  0  0  0  0  0
   -0.3825    1.3640    2.6177 C   0  0  0  0  0  0  0  0  0  0  0  0
   -1.8851    1.2716    2.3301 C   0  0  0  0  0  0  0  0  0  0  0  0
   -2.4150   -0.0928    2.6152 C   0  0  0  0  0  0  0  0  0  0  0  0
   -1.5827   -1.1387    1.9965 N   0  0  0  0  0  0  0  0  0  0  0  0
   -2.0732   -2.1764    1.2571 C   0  0  0  0  0  0  0  0  0  0  0  0
   -3.3325   -2.1683    0.6754 C   0  0  0  0  0  0  0  0  0  0  0  0
   -4.3613   -2.3212    0.1379 C   0  0  0  0  0  0  0  0  0  0  0  0
   -5.6199   -2.3828   -0.4927 C   0  0  0  0  0  0  0  0  0  0  0  0
   -5.8162   -3.6677   -1.1027 N   0  0  0  0  0  0  0  0  0  0  0  0
   -5.2999   -3.9174   -2.3898 C   0  0  0  0  0  0  0  0  0  0  0  0
   -6.0860   -4.7986   -0.2966 C   0  0  0  0  0  0  0  0  0  0  0  0
   -6.7014   -2.1021    0.5247 C   0  0  0  0  0  0  0  0  0  0  0  0
   -5.7329   -1.2949   -1.5423 C   0  0  0  0  0  0  0  0  0  0  0  0
   -1.3520   -3.1613    1.0548 O   0  0  0  0  0  0  0  0  0  0  0  0
   -0.1703   -1.0492    2.1866 C   0  0  0  0  0  0  0  0  0  0  0  0
    0.3419    0.2878    1.8231 C   0  0  0  0  0  0  0  0  0  0  0  0
   -0.3952    3.3210    1.2991 O   0  0  0  0  0  0  0  0  0  0  0  0
    2.2732    2.4873    3.5965 C   0  0  0  0  0  0  0  0  0  0  0  0
    3.2698    2.9176    0.7082 O   0  0  0  0  0  0  0  0  0  0  0  0
    1.7223    4.4214   -2.6721 C   0  0  0  0  0  0  0  0  0  0  0  0
    0.4770    3.5719   -2.3213 C   0  0  0  0  0  0  0  0  0  0  0  0
    0.7787    2.1697   -2.7242 C   0  0  0  0  0  0  0  0  0  0  0  0
   -0.3583    1.3115   -2.5515 N   0  0  0  0  0  0  0  0  0  0  0  0
   -1.6015    1.8117   -3.1737 C   0  0  0  0  0  0  0  0  0  0  0  0
   -1.8331    3.2877   -2.8439 C   0  0  0  0  0  0  0  0  0  0  0  0
   -0.6323    4.0871   -3.0947 O   0  0  0  0  0  0  0  0  0  0  0  0
    4.1691    6.2096   -1.9640 O   0  0  0  0  0  0  0  0  0  0  0  0
    6.3343    4.8991   -3.2064 C   0  0  0  0  0  0  0  0  0  0  0  0
    6.6357    4.4807   -4.6552 C   0  0  0  0  0  0  0  0  0  0  0  0
    6.4914    2.9773   -4.8801 C   0  0  0  0  0  0  0  0  0  0  0  0
    5.3206    0.4461   -5.5440 O   0  0  0  0  0  0  0  0  0  0  0  0
    1.2657   -1.8988   -1.7364 C   0  0  0  0  0  0  0  0  0  0  0  0
    0.2039   -2.7868   -1.8678 C   0  0  0  0  0  0  0  0  0  0  0  0
   -1.0790   -2.2945   -2.2613 C   0  0  0  0  0  0  0  0  0  0  0  0
   -1.2099   -0.9323   -2.4704 C   0  0  0  0  0  0  0  0  0  0  0  0
   -0.1540   -0.0527   -2.3327 C   0  0  0  0  0  0  0  0  0  0  0  0
    1.1278   -0.5260   -1.9498 C   0  0  0  0  0  0  0  0  0  0  0  0
   -0.2246    1.1703    3.9718 F   0  0  0  0  0  0  0  0  0  0  0  0
  1  2  1  0  0  0  0
  2  3  1  0  0  0  0
  2  5  1  0  0  0  0
  3  4  1  0  0  0  0
  5  6  4  0  0  0  0
  5 10  4  0  0  0  0
  6  7  4  0  0  0  0
  7  8  4  0  0  0  0
  8  9  4  0  0  0  0
  9 10  4  0  0  0  0
 10 11  1  0  0  0  0
 11 12  4  0  0  0  0
 11 15  4  0  0  0  0
 12 13  1  0  0  0  0
 12 68  4  0  0  0  0
 13 14  1  0  0  0  0
 15 16  1  0  0  0  0
 15 67  4  0  0  0  0
 16 17  1  0  0  0  0
 17 18  1  0  0  0  0
 17 19  1  0  0  0  0
 17 20  1  0  0  0  0
 20 21  1  0  0  0  0
 21 22  1  0  0  0  0
 22 23  1  0  0  0  0
 22 66  2  0  0  0  0
 23 24  1  0  0  0  0
 23 65  1  0  0  0  0
 24 25  1  0  0  0  0
 25 26  1  0  0  0  0
 25 63  1  0  0  0  0
 26 27  1  0  0  0  0
 26 62  2  0  0  0  0
 27 28  1  0  0  0  0
 27 55  1  0  0  0  0
 28 29  1  0  0  0  0
 29 30  1  0  0  0  0
 29 54  2  0  0  0  0
 30 31  1  0  0  0  0
 30 34  1  0  0  0  0
 31 32  1  0  0  0  0
 31 33  1  0  0  0  0
 34 35  1  0  0  0  0
 34 53  1  0  0  0  0
 35 36  1  0  0  0  0
 35 52  2  0  0  0  0
 36 37  1  0  0  0  0
 36 51  1  0  0  0  0
 36 73  1  0  0  0  0
 37 38  1  0  0  0  0
 38 39  1  0  0  0  0
 39 40  1  0  0  0  0
 39 50  1  0  0  0  0
 40 41  1  0  0  0  0
 40 49  2  0  0  0  0
 41 42  1  0  0  0  0
 42 43  1  0  0  0  0
 43 44  1  0  0  0  0
 43 47  1  0  0  0  0
 43 48  1  0  0  0  0
 44 45  1  0  0  0  0
 44 46  1  0  0  0  0
 50 51  1  0  0  0  0
 55 56  1  0  0  0  0
 56 57  1  0  0  0  0
 56 61  1  0  0  0  0
 57 58  1  0  0  0  0
 58 59  1  0  0  0  0
 58 71  1  0  0  0  0
 59 60  1  0  0  0  0
 60 61  1  0  0  0  0
 63 64  1  0  0  0  0
 64 65  1  0  0  0  0
 67 68  4  0  0  0  0
 67 72  4  0  0  0  0
 68 69  4  0  0  0  0
 69 70  4  0  0  0  0
 70 71  4  0  0  0  0
 71 72  4  0  0  0  0
M  END
$$$$
