mol_ETKDG1_81
  PyMOL3.1          3D                             0

 73 79  0  0  0  0  0  0  0  0999 V2000
    6.1611   -1.1849   -2.5039 C   0  0  0  0  0  0  0  0  0  0  0  0
    5.4852    0.1180   -2.3023 C   0  0  0  0  0  0  0  0  0  0  0  0
    6.2487    1.0984   -1.6403 O   0  0  0  0  0  0  0  0  0  0  0  0
    6.5182    0.8762   -0.2770 C   0  0  0  0  0  0  0  0  0  0  0  0
    5.0285    0.7126   -3.5747 C   0  0  0  0  0  0  0  0  0  0  0  0
    5.9416    1.1917   -4.4004 N   0  0  0  0  0  0  0  0  0  0  0  0
    5.6025    1.6760   -5.6103 C   0  0  0  0  0  0  0  0  0  0  0  0
    4.2805    1.6908   -6.0480 C   0  0  0  0  0  0  0  0  0  0  0  0
    3.3002    1.1869   -5.1901 C   0  0  0  0  0  0  0  0  0  0  0  0
    3.6876    0.7288   -3.9300 C   0  0  0  0  0  0  0  0  0  0  0  0
    2.6703    0.2633   -3.0343 C   0  0  0  0  0  0  0  0  0  0  0  0
    2.2344   -1.0151   -3.0221 N   0  0  0  0  0  0  0  0  0  0  0  0
    2.7036   -2.1635   -3.8712 C   0  0  0  0  0  0  0  0  0  0  0  0
    1.7434   -2.5233   -4.9193 C   0  0  0  0  0  0  0  0  0  0  0  0
    2.0460    1.0256   -2.0145 C   0  0  0  0  0  0  0  0  0  0  0  0
    2.2541    2.4425   -1.5344 C   0  0  0  0  0  0  0  0  0  0  0  0
    1.4325    3.5866   -2.2810 C   0  0  0  0  0  0  0  0  0  0  0  0
    1.6648    4.8626   -1.5000 C   0  0  0  0  0  0  0  0  0  0  0  0
    1.9863    3.8704   -3.6304 C   0  0  0  0  0  0  0  0  0  0  0  0
   -0.0719    3.3220   -2.3937 C   0  0  0  0  0  0  0  0  0  0  0  0
   -0.9370    3.8703   -1.2897 O   0  0  0  0  0  0  0  0  0  0  0  0
   -2.1786    4.5457   -1.4844 C   0  0  0  0  0  0  0  0  0  0  0  0
   -2.9543    4.9939   -0.2524 C   0  0  0  0  0  0  0  0  0  0  0  0
   -2.0857    5.0520    0.8746 N   0  0  0  0  0  0  0  0  0  0  0  0
   -2.6207    5.4866    2.0792 N   0  0  0  0  0  0  0  0  0  0  0  0
   -2.5186    4.7303    3.2024 C   0  0  0  0  0  0  0  0  0  0  0  0
   -1.8405    3.4117    3.0965 C   0  0  0  0  0  0  0  0  0  0  0  0
   -1.0273    3.1319    4.2522 N   0  0  0  0  0  0  0  0  0  0  0  0
    0.2949    3.2608    4.2454 C   0  0  0  0  0  0  0  0  0  0  0  0
    0.9994    2.7572    5.4488 C   0  0  0  0  0  0  0  0  0  0  0  0
    1.5046    3.9009    6.3899 C   0  0  0  0  0  0  0  0  0  0  0  0
    2.0430    3.3791    7.6808 C   0  0  0  0  0  0  0  0  0  0  0  0
    0.4639    4.9646    6.6018 C   0  0  0  0  0  0  0  0  0  0  0  0
    2.0655    1.8971    4.9329 N   0  0  0  0  0  0  0  0  0  0  0  0
    1.7430    0.6016    4.5940 C   0  0  0  0  0  0  0  0  0  0  0  0
    2.6981   -0.3722    3.9699 C   0  0  0  0  0  0  0  0  0  0  0  0
    2.2055   -1.8149    4.0294 C   0  0  0  0  0  0  0  0  0  0  0  0
    3.1322   -2.7215    3.3040 C   0  0  0  0  0  0  0  0  0  0  0  0
    3.4015   -2.2249    1.9484 N   0  0  0  0  0  0  0  0  0  0  0  0
    3.2765   -3.0055    0.8447 C   0  0  0  0  0  0  0  0  0  0  0  0
    2.5575   -4.1664    0.9110 C   0  0  0  0  0  0  0  0  0  0  0  0
    1.9933   -5.1655    0.8972 C   0  0  0  0  0  0  0  0  0  0  0  0
    1.2669   -6.3577    1.0587 C   0  0  0  0  0  0  0  0  0  0  0  0
    1.6238   -7.2974    0.0493 N   0  0  0  0  0  0  0  0  0  0  0  0
    2.9505   -7.7914    0.0411 C   0  0  0  0  0  0  0  0  0  0  0  0
    0.9085   -7.3630   -1.1627 C   0  0  0  0  0  0  0  0  0  0  0  0
    1.5668   -6.9456    2.4396 C   0  0  0  0  0  0  0  0  0  0  0  0
   -0.2151   -6.0638    1.0349 C   0  0  0  0  0  0  0  0  0  0  0  0
    3.7725   -2.6544   -0.2368 O   0  0  0  0  0  0  0  0  0  0  0  0
    3.7895   -0.8580    1.8155 C   0  0  0  0  0  0  0  0  0  0  0  0
    2.8331    0.0325    2.5117 C   0  0  0  0  0  0  0  0  0  0  0  0
    0.5774    0.2229    4.7941 O   0  0  0  0  0  0  0  0  0  0  0  0
    3.3894    2.4801    4.6764 C   0  0  0  0  0  0  0  0  0  0  0  0
    0.8719    3.6502    3.2483 O   0  0  0  0  0  0  0  0  0  0  0  0
   -2.9028    2.2756    2.9184 C   0  0  0  0  0  0  0  0  0  0  0  0
   -2.3118    0.8608    2.7753 C   0  0  0  0  0  0  0  0  0  0  0  0
   -1.7964    0.7251    1.3926 C   0  0  0  0  0  0  0  0  0  0  0  0
   -1.3113   -0.6140    1.1496 N   0  0  0  0  0  0  0  0  0  0  0  0
   -2.3142   -1.6635    1.4393 C   0  0  0  0  0  0  0  0  0  0  0  0
   -2.9019   -1.4551    2.8333 C   0  0  0  0  0  0  0  0  0  0  0  0
   -3.3877   -0.0792    2.9934 O   0  0  0  0  0  0  0  0  0  0  0  0
   -3.0034    5.0855    4.2906 O   0  0  0  0  0  0  0  0  0  0  0  0
   -3.2297    6.8093    2.0726 C   0  0  0  0  0  0  0  0  0  0  0  0
   -4.2312    6.8810    0.9039 C   0  0  0  0  0  0  0  0  0  0  0  0
   -3.6216    6.3947   -0.4158 C   0  0  0  0  0  0  0  0  0  0  0  0
   -2.6672    4.7952   -2.5985 O   0  0  0  0  0  0  0  0  0  0  0  0
    1.1719    0.1101   -1.4284 C   0  0  0  0  0  0  0  0  0  0  0  0
    1.3161   -1.1178   -2.0635 C   0  0  0  0  0  0  0  0  0  0  0  0
    0.5497   -2.2349   -1.6180 C   0  0  0  0  0  0  0  0  0  0  0  0
   -0.3070   -2.0224   -0.5488 C   0  0  0  0  0  0  0  0  0  0  0  0
   -0.4393   -0.7857    0.0705 C   0  0  0  0  0  0  0  0  0  0  0  0
    0.3276    0.3035   -0.3555 C   0  0  0  0  0  0  0  0  0  0  0  0
    3.9197   -0.3345    4.6116 F   0  0  0  0  0  0  0  0  0  0  0  0
  1  2  1  0  0  0  0
  2  3  1  0  0  0  0
  2  5  1  0  0  0  0
  3  4  1  0  0  0  0
  5  6  4  0  0  0  0
  5 10  4  0  0  0  0
  6  7  4  0  0  0  0
  7  8  4  0  0  0  0
  8  9  4  0  0  0  0
  9 10  4  0  0  0  0
 10 11  1  0  0  0  0
 11 12  4  0  0  0  0
 11 15  4  0  0  0  0
 12 13  1  0  0  0  0
 12 68  4  0  0  0  0
 13 14  1  0  0  0  0
 15 16  1  0  0  0  0
 15 67  4  0  0  0  0
 16 17  1  0  0  0  0
 17 18  1  0  0  0  0
 17 19  1  0  0  0  0
 17 20  1  0  0  0  0
 20 21  1  0  0  0  0
 21 22  1  0  0  0  0
 22 23  1  0  0  0  0
 22 66  2  0  0  0  0
 23 24  1  0  0  0  0
 23 65  1  0  0  0  0
 24 25  1  0  0  0  0
 25 26  1  0  0  0  0
 25 63  1  0  0  0  0
 26 27  1  0  0  0  0
 26 62  2  0  0  0  0
 27 28  1  0  0  0  0
 27 55  1  0  0  0  0
 28 29  1  0  0  0  0
 29 30  1  0  0  0  0
 29 54  2  0  0  0  0
 30 31  1  0  0  0  0
 30 34  1  0  0  0  0
 31 32  1  0  0  0  0
 31 33  1  0  0  0  0
 34 35  1  0  0  0  0
 34 53  1  0  0  0  0
 35 36  1  0  0  0  0
 35 52  2  0  0  0  0
 36 37  1  0  0  0  0
 36 51  1  0  0  0  0
 36 73  1  0  0  0  0
 37 38  1  0  0  0  0
 38 39  1  0  0  0  0
 39 40  1  0  0  0  0
 39 50  1  0  0  0  0
 40 41  1  0  0  0  0
 40 49  2  0  0  0  0
 41 42  1  0  0  0  0
 42 43  1  0  0  0  0
 43 44  1  0  0  0  0
 43 47  1  0  0  0  0
 43 48  1  0  0  0  0
 44 45  1  0  0  0  0
 44 46  1  0  0  0  0
 50 51  1  0  0  0  0
 55 56  1  0  0  0  0
 56 57  1  0  0  0  0
 56 61  1  0  0  0  0
 57 58  1  0  0  0  0
 58 59  1  0  0  0  0
 58 71  1  0  0  0  0
 59 60  1  0  0  0  0
 60 61  1  0  0  0  0
 63 64  1  0  0  0  0
 64 65  1  0  0  0  0
 67 68  4  0  0  0  0
 67 72  4  0  0  0  0
 68 69  4  0  0  0  0
 69 70  4  0  0  0  0
 70 71  4  0  0  0  0
 71 72  4  0  0  0  0
M  END
$$$$
