mol_ETKDG1_82
  PyMOL3.1          3D                             0

 73 79  0  0  0  0  0  0  0  0999 V2000
   -2.3406   -2.9539   -3.5732 C   0  0  0  0  0  0  0  0  0  0  0  0
   -1.4931   -2.9012   -2.3798 C   0  0  0  0  0  0  0  0  0  0  0  0
   -0.1176   -3.1703   -2.5657 O   0  0  0  0  0  0  0  0  0  0  0  0
    0.6523   -2.2432   -3.2717 C   0  0  0  0  0  0  0  0  0  0  0  0
   -1.9511   -3.7708   -1.2946 C   0  0  0  0  0  0  0  0  0  0  0  0
   -1.4962   -5.0099   -1.2686 N   0  0  0  0  0  0  0  0  0  0  0  0
   -1.8783   -5.8768   -0.3076 C   0  0  0  0  0  0  0  0  0  0  0  0
   -2.7822   -5.5060    0.6908 C   0  0  0  0  0  0  0  0  0  0  0  0
   -3.2886   -4.2085    0.6633 C   0  0  0  0  0  0  0  0  0  0  0  0
   -2.8558   -3.3244   -0.3387 C   0  0  0  0  0  0  0  0  0  0  0  0
   -3.3837   -1.9749   -0.3455 C   0  0  0  0  0  0  0  0  0  0  0  0
   -4.6557   -1.6775   -0.7085 N   0  0  0  0  0  0  0  0  0  0  0  0
   -5.7093   -2.6197   -1.2054 C   0  0  0  0  0  0  0  0  0  0  0  0
   -6.7626   -2.8754   -0.2281 C   0  0  0  0  0  0  0  0  0  0  0  0
   -2.6672   -0.7881   -0.0469 C   0  0  0  0  0  0  0  0  0  0  0  0
   -1.2052   -0.5749    0.2708 C   0  0  0  0  0  0  0  0  0  0  0  0
   -0.8253   -0.7020    1.8037 C   0  0  0  0  0  0  0  0  0  0  0  0
    0.6941   -0.7128    1.9252 C   0  0  0  0  0  0  0  0  0  0  0  0
   -1.2675   -1.9847    2.3908 C   0  0  0  0  0  0  0  0  0  0  0  0
   -1.4125    0.4328    2.5870 C   0  0  0  0  0  0  0  0  0  0  0  0
   -0.7038    1.7532    2.4868 O   0  0  0  0  0  0  0  0  0  0  0  0
   -0.4941    2.6267    3.6023 C   0  0  0  0  0  0  0  0  0  0  0  0
    0.1871    3.9596    3.3756 C   0  0  0  0  0  0  0  0  0  0  0  0
    0.6117    4.0873    2.0118 N   0  0  0  0  0  0  0  0  0  0  0  0
    1.2772    5.2590    1.6706 N   0  0  0  0  0  0  0  0  0  0  0  0
    0.8450    6.0437    0.6390 C   0  0  0  0  0  0  0  0  0  0  0  0
   -0.3485    5.6035   -0.1537 C   0  0  0  0  0  0  0  0  0  0  0  0
   -0.2239    5.9841   -1.5398 N   0  0  0  0  0  0  0  0  0  0  0  0
    0.1491    5.1400   -2.4959 C   0  0  0  0  0  0  0  0  0  0  0  0
    0.0300    5.6389   -3.8985 C   0  0  0  0  0  0  0  0  0  0  0  0
    1.3390    6.1298   -4.5576 C   0  0  0  0  0  0  0  0  0  0  0  0
    2.5121    6.2853   -3.7006 C   0  0  0  0  0  0  0  0  0  0  0  0
    1.1344    7.1836   -5.5973 C   0  0  0  0  0  0  0  0  0  0  0  0
   -0.5990    4.5598   -4.6590 N   0  0  0  0  0  0  0  0  0  0  0  0
   -1.9694    4.4296   -4.6009 C   0  0  0  0  0  0  0  0  0  0  0  0
   -2.7466    3.3113   -5.2426 C   0  0  0  0  0  0  0  0  0  0  0  0
   -2.5996    2.1111   -4.3295 C   0  0  0  0  0  0  0  0  0  0  0  0
   -3.3118    0.9331   -4.8654 C   0  0  0  0  0  0  0  0  0  0  0  0
   -4.7169    1.2720   -5.1067 N   0  0  0  0  0  0  0  0  0  0  0  0
   -5.6946    0.4608   -4.6079 C   0  0  0  0  0  0  0  0  0  0  0  0
   -7.0002    0.8946   -4.4633 C   0  0  0  0  0  0  0  0  0  0  0  0
   -8.1202    1.1142   -4.2880 C   0  0  0  0  0  0  0  0  0  0  0  0
   -9.4575    1.5502   -4.1297 C   0  0  0  0  0  0  0  0  0  0  0  0
  -10.2822    0.4689   -3.6673 N   0  0  0  0  0  0  0  0  0  0  0  0
  -10.2589    0.1125   -2.3052 C   0  0  0  0  0  0  0  0  0  0  0  0
  -10.7292   -0.5230   -4.5823 C   0  0  0  0  0  0  0  0  0  0  0  0
   -9.5052    2.7136   -3.1540 C   0  0  0  0  0  0  0  0  0  0  0  0
   -9.9590    2.0767   -5.4589 C   0  0  0  0  0  0  0  0  0  0  0  0
   -5.4191   -0.6794   -4.2299 O   0  0  0  0  0  0  0  0  0  0  0  0
   -4.9884    2.4642   -5.8726 C   0  0  0  0  0  0  0  0  0  0  0  0
   -4.2414    3.6394   -5.4054 C   0  0  0  0  0  0  0  0  0  0  0  0
   -2.6030    5.2799   -3.9422 O   0  0  0  0  0  0  0  0  0  0  0  0
    0.2632    3.5791   -5.3441 C   0  0  0  0  0  0  0  0  0  0  0  0
    0.4304    3.9842   -2.2209 O   0  0  0  0  0  0  0  0  0  0  0  0
   -1.6810    6.2295    0.4247 C   0  0  0  0  0  0  0  0  0  0  0  0
   -2.9693    5.7107   -0.2771 C   0  0  0  0  0  0  0  0  0  0  0  0
   -3.2481    4.3617    0.2839 C   0  0  0  0  0  0  0  0  0  0  0  0
   -4.4744    3.8097   -0.2251 N   0  0  0  0  0  0  0  0  0  0  0  0
   -5.6485    4.6832   -0.1031 C   0  0  0  0  0  0  0  0  0  0  0  0
   -5.3166    6.1172   -0.5496 C   0  0  0  0  0  0  0  0  0  0  0  0
   -4.0684    6.6014    0.0517 O   0  0  0  0  0  0  0  0  0  0  0  0
    1.3968    7.1219    0.3665 O   0  0  0  0  0  0  0  0  0  0  0  0
    2.4909    5.5468    2.4358 C   0  0  0  0  0  0  0  0  0  0  0  0
    2.1766    5.4501    3.9427 C   0  0  0  0  0  0  0  0  0  0  0  0
    1.4212    4.1588    4.3005 C   0  0  0  0  0  0  0  0  0  0  0  0
   -0.8288    2.3765    4.7804 O   0  0  0  0  0  0  0  0  0  0  0  0
   -3.6253    0.2316   -0.2042 C   0  0  0  0  0  0  0  0  0  0  0  0
   -4.8177   -0.3533   -0.6117 C   0  0  0  0  0  0  0  0  0  0  0  0
   -5.9535    0.4769   -0.8790 C   0  0  0  0  0  0  0  0  0  0  0  0
   -5.7919    1.8517   -0.7473 C   0  0  0  0  0  0  0  0  0  0  0  0
   -4.5933    2.4227   -0.3391 C   0  0  0  0  0  0  0  0  0  0  0  0
   -3.4768    1.6043   -0.0684 C   0  0  0  0  0  0  0  0  0  0  0  0
   -2.2896    3.0476   -6.5199 F   0  0  0  0  0  0  0  0  0  0  0  0
  1  2  1  0  0  0  0
  2  3  1  0  0  0  0
  2  5  1  0  0  0  0
  3  4  1  0  0  0  0
  5  6  4  0  0  0  0
  5 10  4  0  0  0  0
  6  7  4  0  0  0  0
  7  8  4  0  0  0  0
  8  9  4  0  0  0  0
  9 10  4  0  0  0  0
 10 11  1  0  0  0  0
 11 12  4  0  0  0  0
 11 15  4  0  0  0  0
 12 13  1  0  0  0  0
 12 68  4  0  0  0  0
 13 14  1  0  0  0  0
 15 16  1  0  0  0  0
 15 67  4  0  0  0  0
 16 17  1  0  0  0  0
 17 18  1  0  0  0  0
 17 19  1  0  0  0  0
 17 20  1  0  0  0  0
 20 21  1  0  0  0  0
 21 22  1  0  0  0  0
 22 23  1  0  0  0  0
 22 66  2  0  0  0  0
 23 24  1  0  0  0  0
 23 65  1  0  0  0  0
 24 25  1  0  0  0  0
 25 26  1  0  0  0  0
 25 63  1  0  0  0  0
 26 27  1  0  0  0  0
 26 62  2  0  0  0  0
 27 28  1  0  0  0  0
 27 55  1  0  0  0  0
 28 29  1  0  0  0  0
 29 30  1  0  0  0  0
 29 54  2  0  0  0  0
 30 31  1  0  0  0  0
 30 34  1  0  0  0  0
 31 32  1  0  0  0  0
 31 33  1  0  0  0  0
 34 35  1  0  0  0  0
 34 53  1  0  0  0  0
 35 36  1  0  0  0  0
 35 52  2  0  0  0  0
 36 37  1  0  0  0  0
 36 51  1  0  0  0  0
 36 73  1  0  0  0  0
 37 38  1  0  0  0  0
 38 39  1  0  0  0  0
 39 40  1  0  0  0  0
 39 50  1  0  0  0  0
 40 41  1  0  0  0  0
 40 49  2  0  0  0  0
 41 42  1  0  0  0  0
 42 43  1  0  0  0  0
 43 44  1  0  0  0  0
 43 47  1  0  0  0  0
 43 48  1  0  0  0  0
 44 45  1  0  0  0  0
 44 46  1  0  0  0  0
 50 51  1  0  0  0  0
 55 56  1  0  0  0  0
 56 57  1  0  0  0  0
 56 61  1  0  0  0  0
 57 58  1  0  0  0  0
 58 59  1  0  0  0  0
 58 71  1  0  0  0  0
 59 60  1  0  0  0  0
 60 61  1  0  0  0  0
 63 64  1  0  0  0  0
 64 65  1  0  0  0  0
 67 68  4  0  0  0  0
 67 72  4  0  0  0  0
 68 69  4  0  0  0  0
 69 70  4  0  0  0  0
 70 71  4  0  0  0  0
 71 72  4  0  0  0  0
M  END
$$$$
