mol_ETKDG3_184
  PyMOL3.1          3D                             0

 73 79  0  0  0  0  0  0  0  0999 V2000
    1.2313    3.5445   -6.6954 C   0  0  0  0  0  0  0  0  0  0  0  0
    1.3640    2.1005   -6.3617 C   0  0  0  0  0  0  0  0  0  0  0  0
    2.6908    1.6025   -6.4379 O   0  0  0  0  0  0  0  0  0  0  0  0
    3.5933    2.0043   -5.4293 C   0  0  0  0  0  0  0  0  0  0  0  0
    0.5256    1.2374   -7.2284 C   0  0  0  0  0  0  0  0  0  0  0  0
    0.9008    1.0940   -8.4932 N   0  0  0  0  0  0  0  0  0  0  0  0
    0.1643    0.3766   -9.3716 C   0  0  0  0  0  0  0  0  0  0  0  0
   -1.0369   -0.2366   -8.9933 C   0  0  0  0  0  0  0  0  0  0  0  0
   -1.4619   -0.0968   -7.6662 C   0  0  0  0  0  0  0  0  0  0  0  0
   -0.6494    0.6294   -6.7734 C   0  0  0  0  0  0  0  0  0  0  0  0
   -1.0984    0.7173   -5.4011 C   0  0  0  0  0  0  0  0  0  0  0  0
   -2.0365    1.6073   -4.9849 N   0  0  0  0  0  0  0  0  0  0  0  0
   -2.7122    2.6904   -5.7925 C   0  0  0  0  0  0  0  0  0  0  0  0
   -4.0944    2.3454   -6.1707 C   0  0  0  0  0  0  0  0  0  0  0  0
   -0.6227   -0.0626   -4.3046 C   0  0  0  0  0  0  0  0  0  0  0  0
    0.4984   -1.0683   -4.1861 C   0  0  0  0  0  0  0  0  0  0  0  0
    0.1712   -2.5801   -4.5622 C   0  0  0  0  0  0  0  0  0  0  0  0
    1.4399   -3.3831   -4.3263 C   0  0  0  0  0  0  0  0  0  0  0  0
   -0.0988   -2.7507   -6.0185 C   0  0  0  0  0  0  0  0  0  0  0  0
   -0.9784   -3.1712   -3.7476 C   0  0  0  0  0  0  0  0  0  0  0  0
   -0.6272   -3.8174   -2.4216 O   0  0  0  0  0  0  0  0  0  0  0  0
   -1.1845   -5.0559   -1.9486 C   0  0  0  0  0  0  0  0  0  0  0  0
   -0.8036   -5.5707   -0.5630 C   0  0  0  0  0  0  0  0  0  0  0  0
    0.3677   -4.9033   -0.0793 N   0  0  0  0  0  0  0  0  0  0  0  0
    0.8649   -5.2715    1.1651 N   0  0  0  0  0  0  0  0  0  0  0  0
    1.0708   -4.3374    2.1490 C   0  0  0  0  0  0  0  0  0  0  0  0
    0.7567   -2.8997    1.8514 C   0  0  0  0  0  0  0  0  0  0  0  0
    1.7323   -2.0003    2.4281 N   0  0  0  0  0  0  0  0  0  0  0  0
    2.6788   -1.3730    1.7103 C   0  0  0  0  0  0  0  0  0  0  0  0
    3.4947   -0.3481    2.4327 C   0  0  0  0  0  0  0  0  0  0  0  0
    4.8896   -0.8347    2.9163 C   0  0  0  0  0  0  0  0  0  0  0  0
    5.1306   -2.2769    2.9149 C   0  0  0  0  0  0  0  0  0  0  0  0
    5.4029   -0.0872    4.1125 C   0  0  0  0  0  0  0  0  0  0  0  0
    3.5949    0.8051    1.5281 N   0  0  0  0  0  0  0  0  0  0  0  0
    2.5187    1.6711    1.4422 C   0  0  0  0  0  0  0  0  0  0  0  0
    2.4231    2.8365    0.4825 C   0  0  0  0  0  0  0  0  0  0  0  0
    1.2849    3.8160    0.8262 C   0  0  0  0  0  0  0  0  0  0  0  0
    1.1293    4.8681   -0.2432 C   0  0  0  0  0  0  0  0  0  0  0  0
    1.0504    4.2488   -1.5893 N   0  0  0  0  0  0  0  0  0  0  0  0
    0.0773    4.5119   -2.5168 C   0  0  0  0  0  0  0  0  0  0  0  0
   -1.0517    5.2380   -2.2159 C   0  0  0  0  0  0  0  0  0  0  0  0
   -2.0117    5.8872   -2.1128 C   0  0  0  0  0  0  0  0  0  0  0  0
   -3.1211    6.7020   -1.7922 C   0  0  0  0  0  0  0  0  0  0  0  0
   -2.9011    8.0676   -2.1563 N   0  0  0  0  0  0  0  0  0  0  0  0
   -1.5980    8.5729   -2.2952 C   0  0  0  0  0  0  0  0  0  0  0  0
   -3.9448    9.0022   -2.2622 C   0  0  0  0  0  0  0  0  0  0  0  0
   -3.3653    6.6152   -0.2824 C   0  0  0  0  0  0  0  0  0  0  0  0
   -4.3549    6.1664   -2.4927 C   0  0  0  0  0  0  0  0  0  0  0  0
    0.1766    4.0496   -3.6756 O   0  0  0  0  0  0  0  0  0  0  0  0
    2.0622    3.2976   -1.9238 C   0  0  0  0  0  0  0  0  0  0  0  0
    2.1440    2.2322   -0.8875 C   0  0  0  0  0  0  0  0  0  0  0  0
    1.5464    1.4449    2.1897 O   0  0  0  0  0  0  0  0  0  0  0  0
    4.7805    0.9232    0.6517 C   0  0  0  0  0  0  0  0  0  0  0  0
    2.7537   -1.5502    0.5023 O   0  0  0  0  0  0  0  0  0  0  0  0
   -0.6775   -2.5450    2.4129 C   0  0  0  0  0  0  0  0  0  0  0  0
   -1.1551   -1.0965    2.1265 C   0  0  0  0  0  0  0  0  0  0  0  0
   -1.6308   -1.0567    0.7148 C   0  0  0  0  0  0  0  0  0  0  0  0
   -2.2129    0.2222    0.3737 N   0  0  0  0  0  0  0  0  0  0  0  0
   -3.2630    0.6854    1.3103 C   0  0  0  0  0  0  0  0  0  0  0  0
   -2.7944    0.5426    2.7695 C   0  0  0  0  0  0  0  0  0  0  0  0
   -2.2543   -0.7966    3.0284 O   0  0  0  0  0  0  0  0  0  0  0  0
    1.4637   -4.6534    3.2854 O   0  0  0  0  0  0  0  0  0  0  0  0
    1.2068   -6.6888    1.3182 C   0  0  0  0  0  0  0  0  0  0  0  0
    0.0154   -7.5496    0.8419 C   0  0  0  0  0  0  0  0  0  0  0  0
   -0.5228   -7.1081   -0.5320 C   0  0  0  0  0  0  0  0  0  0  0  0
   -1.9900   -5.7456   -2.6080 O   0  0  0  0  0  0  0  0  0  0  0  0
   -1.3971    0.3886   -3.2205 C   0  0  0  0  0  0  0  0  0  0  0  0
   -2.2375    1.4056   -3.6725 C   0  0  0  0  0  0  0  0  0  0  0  0
   -3.1140    2.0616   -2.7434 C   0  0  0  0  0  0  0  0  0  0  0  0
   -3.0657    1.6455   -1.4081 C   0  0  0  0  0  0  0  0  0  0  0  0
   -2.2184    0.6202   -0.9740 C   0  0  0  0  0  0  0  0  0  0  0  0
   -1.3502   -0.0109   -1.8890 C   0  0  0  0  0  0  0  0  0  0  0  0
    3.5991    3.5725    0.4754 F   0  0  0  0  0  0  0  0  0  0  0  0
  1  2  1  0  0  0  0
  2  3  1  0  0  0  0
  2  5  1  0  0  0  0
  3  4  1  0  0  0  0
  5  6  4  0  0  0  0
  5 10  4  0  0  0  0
  6  7  4  0  0  0  0
  7  8  4  0  0  0  0
  8  9  4  0  0  0  0
  9 10  4  0  0  0  0
 10 11  1  0  0  0  0
 11 12  4  0  0  0  0
 11 15  4  0  0  0  0
 12 13  1  0  0  0  0
 12 68  4  0  0  0  0
 13 14  1  0  0  0  0
 15 16  1  0  0  0  0
 15 67  4  0  0  0  0
 16 17  1  0  0  0  0
 17 18  1  0  0  0  0
 17 19  1  0  0  0  0
 17 20  1  0  0  0  0
 20 21  1  0  0  0  0
 21 22  1  0  0  0  0
 22 23  1  0  0  0  0
 22 66  2  0  0  0  0
 23 24  1  0  0  0  0
 23 65  1  0  0  0  0
 24 25  1  0  0  0  0
 25 26  1  0  0  0  0
 25 63  1  0  0  0  0
 26 27  1  0  0  0  0
 26 62  2  0  0  0  0
 27 28  1  0  0  0  0
 27 55  1  0  0  0  0
 28 29  1  0  0  0  0
 29 30  1  0  0  0  0
 29 54  2  0  0  0  0
 30 31  1  0  0  0  0
 30 34  1  0  0  0  0
 31 32  1  0  0  0  0
 31 33  1  0  0  0  0
 34 35  1  0  0  0  0
 34 53  1  0  0  0  0
 35 36  1  0  0  0  0
 35 52  2  0  0  0  0
 36 37  1  0  0  0  0
 36 51  1  0  0  0  0
 36 73  1  0  0  0  0
 37 38  1  0  0  0  0
 38 39  1  0  0  0  0
 39 40  1  0  0  0  0
 39 50  1  0  0  0  0
 40 41  1  0  0  0  0
 40 49  2  0  0  0  0
 41 42  1  0  0  0  0
 42 43  1  0  0  0  0
 43 44  1  0  0  0  0
 43 47  1  0  0  0  0
 43 48  1  0  0  0  0
 44 45  1  0  0  0  0
 44 46  1  0  0  0  0
 50 51  1  0  0  0  0
 55 56  1  0  0  0  0
 56 57  1  0  0  0  0
 56 61  1  0  0  0  0
 57 58  1  0  0  0  0
 58 59  1  0  0  0  0
 58 71  1  0  0  0  0
 59 60  1  0  0  0  0
 60 61  1  0  0  0  0
 63 64  1  0  0  0  0
 64 65  1  0  0  0  0
 67 68  4  0  0  0  0
 67 72  4  0  0  0  0
 68 69  4  0  0  0  0
 69 70  4  0  0  0  0
 70 71  4  0  0  0  0
 71 72  4  0  0  0  0
M  END
$$$$
