mol_ETKDG4_247
  PyMOL3.1          3D                             0

 73 79  0  0  0  0  0  0  0  0999 V2000
   -7.7027   -0.7328    1.5155 C   0  0  0  0  0  0  0  0  0  0  0  0
   -6.5765    0.1829    1.7588 C   0  0  0  0  0  0  0  0  0  0  0  0
   -6.2523    1.0592    0.7095 O   0  0  0  0  0  0  0  0  0  0  0  0
   -5.5573    0.5116   -0.3907 C   0  0  0  0  0  0  0  0  0  0  0  0
   -6.7385    0.9812    2.9859 C   0  0  0  0  0  0  0  0  0  0  0  0
   -7.5199    2.0456    2.9524 N   0  0  0  0  0  0  0  0  0  0  0  0
   -7.7603    2.7745    4.0614 C   0  0  0  0  0  0  0  0  0  0  0  0
   -7.1981    2.4398    5.2948 C   0  0  0  0  0  0  0  0  0  0  0  0
   -6.3737    1.3097    5.3536 C   0  0  0  0  0  0  0  0  0  0  0  0
   -6.1292    0.6040    4.1688 C   0  0  0  0  0  0  0  0  0  0  0  0
   -5.2165   -0.5076    4.2166 C   0  0  0  0  0  0  0  0  0  0  0  0
   -5.5731   -1.7665    4.5661 N   0  0  0  0  0  0  0  0  0  0  0  0
   -6.9458   -2.2599    4.9124 C   0  0  0  0  0  0  0  0  0  0  0  0
   -7.1127   -2.6575    6.2916 C   0  0  0  0  0  0  0  0  0  0  0  0
   -3.8577   -0.4555    3.8239 C   0  0  0  0  0  0  0  0  0  0  0  0
   -3.0363    0.6514    3.2261 C   0  0  0  0  0  0  0  0  0  0  0  0
   -2.3431    1.6644    4.2220 C   0  0  0  0  0  0  0  0  0  0  0  0
   -3.3145    2.5916    4.9084 C   0  0  0  0  0  0  0  0  0  0  0  0
   -1.4976    2.5745    3.3963 C   0  0  0  0  0  0  0  0  0  0  0  0
   -1.4966    0.9944    5.2753 C   0  0  0  0  0  0  0  0  0  0  0  0
   -0.0574    0.8377    4.8882 O   0  0  0  0  0  0  0  0  0  0  0  0
    1.0295    0.8060    5.7805 C   0  0  0  0  0  0  0  0  0  0  0  0
    2.4175    0.6303    5.2125 C   0  0  0  0  0  0  0  0  0  0  0  0
    2.3574    0.5256    3.7914 N   0  0  0  0  0  0  0  0  0  0  0  0
    3.5444    0.3817    3.0981 N   0  0  0  0  0  0  0  0  0  0  0  0
    3.7038   -0.6333    2.1973 C   0  0  0  0  0  0  0  0  0  0  0  0
    2.5660   -1.5833    1.9798 C   0  0  0  0  0  0  0  0  0  0  0  0
    2.4357   -1.9540    0.5927 N   0  0  0  0  0  0  0  0  0  0  0  0
    1.5293   -1.4094   -0.2304 C   0  0  0  0  0  0  0  0  0  0  0  0
    1.4368   -2.0166   -1.5863 C   0  0  0  0  0  0  0  0  0  0  0  0
    2.0859   -1.1561   -2.7209 C   0  0  0  0  0  0  0  0  0  0  0  0
    2.1804   -1.9005   -4.0082 C   0  0  0  0  0  0  0  0  0  0  0  0
    3.4004   -0.5682   -2.3101 C   0  0  0  0  0  0  0  0  0  0  0  0
    0.0225   -2.2920   -1.8132 N   0  0  0  0  0  0  0  0  0  0  0  0
   -0.4866   -3.4532   -1.3070 C   0  0  0  0  0  0  0  0  0  0  0  0
   -1.9284   -3.8693   -1.3777 C   0  0  0  0  0  0  0  0  0  0  0  0
   -2.6359   -3.2097   -0.2190 C   0  0  0  0  0  0  0  0  0  0  0  0
   -4.0700   -3.5916   -0.1709 C   0  0  0  0  0  0  0  0  0  0  0  0
   -4.1697   -5.0540   -0.1439 N   0  0  0  0  0  0  0  0  0  0  0  0
   -4.8625   -5.7001    0.8474 C   0  0  0  0  0  0  0  0  0  0  0  0
   -4.7516   -7.0684    1.0039 C   0  0  0  0  0  0  0  0  0  0  0  0
   -4.7853   -8.2107    1.1645 C   0  0  0  0  0  0  0  0  0  0  0  0
   -4.6520   -9.6170    1.1679 C   0  0  0  0  0  0  0  0  0  0  0  0
   -5.7483  -10.2019    0.4544 N   0  0  0  0  0  0  0  0  0  0  0  0
   -6.8495  -10.7553    1.1252 C   0  0  0  0  0  0  0  0  0  0  0  0
   -5.8817   -9.9726   -0.9396 C   0  0  0  0  0  0  0  0  0  0  0  0
   -4.5730  -10.1164    2.5872 C   0  0  0  0  0  0  0  0  0  0  0  0
   -3.3457  -10.0281    0.4933 C   0  0  0  0  0  0  0  0  0  0  0  0
   -5.5699   -5.0766    1.6322 O   0  0  0  0  0  0  0  0  0  0  0  0
   -3.4869   -5.7663   -1.1894 C   0  0  0  0  0  0  0  0  0  0  0  0
   -2.0701   -5.3901   -1.2757 C   0  0  0  0  0  0  0  0  0  0  0  0
    0.3038   -4.2112   -0.7137 O   0  0  0  0  0  0  0  0  0  0  0  0
   -0.8157   -1.2672   -2.4480 C   0  0  0  0  0  0  0  0  0  0  0  0
    0.7619   -0.5521    0.1769 O   0  0  0  0  0  0  0  0  0  0  0  0
    2.7499   -2.8814    2.8516 C   0  0  0  0  0  0  0  0  0  0  0  0
    1.5499   -3.8667    2.8061 C   0  0  0  0  0  0  0  0  0  0  0  0
    0.4596   -3.2893    3.6359 C   0  0  0  0  0  0  0  0  0  0  0  0
   -0.6651   -4.1849    3.7699 N   0  0  0  0  0  0  0  0  0  0  0  0
   -0.3174   -5.5343    4.2238 C   0  0  0  0  0  0  0  0  0  0  0  0
    0.8794   -6.0813    3.4354 C   0  0  0  0  0  0  0  0  0  0  0  0
    1.9870   -5.1144    3.3882 O   0  0  0  0  0  0  0  0  0  0  0  0
    4.7660   -0.8009    1.5868 O   0  0  0  0  0  0  0  0  0  0  0  0
    4.5541    1.4124    3.3420 C   0  0  0  0  0  0  0  0  0  0  0  0
    4.7153    1.6461    4.8580 C   0  0  0  0  0  0  0  0  0  0  0  0
    3.3748    1.7939    5.5825 C   0  0  0  0  0  0  0  0  0  0  0  0
    0.9318    0.9208    7.0144 O   0  0  0  0  0  0  0  0  0  0  0  0
   -3.4120   -1.7699    4.0274 C   0  0  0  0  0  0  0  0  0  0  0  0
   -4.4816   -2.5400    4.4765 C   0  0  0  0  0  0  0  0  0  0  0  0
   -4.2765   -3.9350    4.7153 C   0  0  0  0  0  0  0  0  0  0  0  0
   -2.9948   -4.4489    4.4658 C   0  0  0  0  0  0  0  0  0  0  0  0
   -1.9378   -3.6463    4.0152 C   0  0  0  0  0  0  0  0  0  0  0  0
   -2.1496   -2.2887    3.7844 C   0  0  0  0  0  0  0  0  0  0  0  0
   -2.4992   -3.5244   -2.5783 F   0  0  0  0  0  0  0  0  0  0  0  0
  1  2  1  0  0  0  0
  2  3  1  0  0  0  0
  2  5  1  0  0  0  0
  3  4  1  0  0  0  0
  5  6  4  0  0  0  0
  5 10  4  0  0  0  0
  6  7  4  0  0  0  0
  7  8  4  0  0  0  0
  8  9  4  0  0  0  0
  9 10  4  0  0  0  0
 10 11  1  0  0  0  0
 11 12  4  0  0  0  0
 11 15  4  0  0  0  0
 12 13  1  0  0  0  0
 12 68  4  0  0  0  0
 13 14  1  0  0  0  0
 15 16  1  0  0  0  0
 15 67  4  0  0  0  0
 16 17  1  0  0  0  0
 17 18  1  0  0  0  0
 17 19  1  0  0  0  0
 17 20  1  0  0  0  0
 20 21  1  0  0  0  0
 21 22  1  0  0  0  0
 22 23  1  0  0  0  0
 22 66  2  0  0  0  0
 23 24  1  0  0  0  0
 23 65  1  0  0  0  0
 24 25  1  0  0  0  0
 25 26  1  0  0  0  0
 25 63  1  0  0  0  0
 26 27  1  0  0  0  0
 26 62  2  0  0  0  0
 27 28  1  0  0  0  0
 27 55  1  0  0  0  0
 28 29  1  0  0  0  0
 29 30  1  0  0  0  0
 29 54  2  0  0  0  0
 30 31  1  0  0  0  0
 30 34  1  0  0  0  0
 31 32  1  0  0  0  0
 31 33  1  0  0  0  0
 34 35  1  0  0  0  0
 34 53  1  0  0  0  0
 35 36  1  0  0  0  0
 35 52  2  0  0  0  0
 36 37  1  0  0  0  0
 36 51  1  0  0  0  0
 36 73  1  0  0  0  0
 37 38  1  0  0  0  0
 38 39  1  0  0  0  0
 39 40  1  0  0  0  0
 39 50  1  0  0  0  0
 40 41  1  0  0  0  0
 40 49  2  0  0  0  0
 41 42  1  0  0  0  0
 42 43  1  0  0  0  0
 43 44  1  0  0  0  0
 43 47  1  0  0  0  0
 43 48  1  0  0  0  0
 44 45  1  0  0  0  0
 44 46  1  0  0  0  0
 50 51  1  0  0  0  0
 55 56  1  0  0  0  0
 56 57  1  0  0  0  0
 56 61  1  0  0  0  0
 57 58  1  0  0  0  0
 58 59  1  0  0  0  0
 58 71  1  0  0  0  0
 59 60  1  0  0  0  0
 60 61  1  0  0  0  0
 63 64  1  0  0  0  0
 64 65  1  0  0  0  0
 67 68  4  0  0  0  0
 67 72  4  0  0  0  0
 68 69  4  0  0  0  0
 69 70  4  0  0  0  0
 70 71  4  0  0  0  0
 71 72  4  0  0  0  0
M  END
$$$$
