mol_ETKDG2_105
  PyMOL3.1          3D                             0

 73 79  0  0  0  0  0  0  0  0999 V2000
   -4.8090    3.1923    2.1725 C   0  0  0  0  0  0  0  0  0  0  0  0
   -3.7861    2.2518    2.6946 C   0  0  0  0  0  0  0  0  0  0  0  0
   -4.2911    0.9801    3.0684 O   0  0  0  0  0  0  0  0  0  0  0  0
   -4.6214    0.1021    2.0146 C   0  0  0  0  0  0  0  0  0  0  0  0
   -3.0700    2.7978    3.8646 C   0  0  0  0  0  0  0  0  0  0  0  0
   -3.6855    2.7795    5.0327 N   0  0  0  0  0  0  0  0  0  0  0  0
   -3.1222    3.3332    6.1277 C   0  0  0  0  0  0  0  0  0  0  0  0
   -1.8658    3.9487    6.0783 C   0  0  0  0  0  0  0  0  0  0  0  0
   -1.1984    3.9888    4.8479 C   0  0  0  0  0  0  0  0  0  0  0  0
   -1.8074    3.3794    3.7444 C   0  0  0  0  0  0  0  0  0  0  0  0
   -1.0969    3.3597    2.4885 C   0  0  0  0  0  0  0  0  0  0  0  0
   -1.0814    4.3975    1.6112 N   0  0  0  0  0  0  0  0  0  0  0  0
   -1.7499    5.7335    1.7607 C   0  0  0  0  0  0  0  0  0  0  0  0
   -0.7925    6.7807    2.1697 C   0  0  0  0  0  0  0  0  0  0  0  0
   -0.4105    2.2434    1.9587 C   0  0  0  0  0  0  0  0  0  0  0  0
   -0.2519    0.8464    2.5206 C   0  0  0  0  0  0  0  0  0  0  0  0
    1.0227    0.6254    3.4450 C   0  0  0  0  0  0  0  0  0  0  0  0
    1.1626    1.6095    4.5661 C   0  0  0  0  0  0  0  0  0  0  0  0
    0.9061   -0.7226    4.1318 C   0  0  0  0  0  0  0  0  0  0  0  0
    2.2440    0.6738    2.6099 C   0  0  0  0  0  0  0  0  0  0  0  0
    2.4963   -0.5771    1.7884 O   0  0  0  0  0  0  0  0  0  0  0  0
    3.8081   -1.0591    1.5006 C   0  0  0  0  0  0  0  0  0  0  0  0
    3.9704   -2.2792    0.6359 C   0  0  0  0  0  0  0  0  0  0  0  0
    2.7130   -2.7153    0.1050 N   0  0  0  0  0  0  0  0  0  0  0  0
    2.7509   -3.8221   -0.7336 N   0  0  0  0  0  0  0  0  0  0  0  0
    2.2316   -3.7651   -1.9964 C   0  0  0  0  0  0  0  0  0  0  0  0
    1.5782   -2.4943   -2.4461 C   0  0  0  0  0  0  0  0  0  0  0  0
    0.4445   -2.7397   -3.3070 N   0  0  0  0  0  0  0  0  0  0  0  0
   -0.8207   -2.6650   -2.8731 C   0  0  0  0  0  0  0  0  0  0  0  0
   -1.8799   -2.7562   -3.9130 C   0  0  0  0  0  0  0  0  0  0  0  0
   -2.5794   -4.1416   -4.0222 C   0  0  0  0  0  0  0  0  0  0  0  0
   -3.4048   -4.2835   -5.2576 C   0  0  0  0  0  0  0  0  0  0  0  0
   -1.6647   -5.3009   -3.7846 C   0  0  0  0  0  0  0  0  0  0  0  0
   -2.8131   -1.6720   -3.6324 N   0  0  0  0  0  0  0  0  0  0  0  0
   -2.4873   -0.4069   -4.0672 C   0  0  0  0  0  0  0  0  0  0  0  0
   -3.2922    0.8270   -3.7753 C   0  0  0  0  0  0  0  0  0  0  0  0
   -2.9043    2.0176   -4.6615 C   0  0  0  0  0  0  0  0  0  0  0  0
   -3.6562    3.2255   -4.2719 C   0  0  0  0  0  0  0  0  0  0  0  0
   -3.5993    3.4654   -2.8178 N   0  0  0  0  0  0  0  0  0  0  0  0
   -3.3694    4.6831   -2.2836 C   0  0  0  0  0  0  0  0  0  0  0  0
   -2.9192    5.7222   -3.0521 C   0  0  0  0  0  0  0  0  0  0  0  0
   -2.5569    6.6767   -3.5869 C   0  0  0  0  0  0  0  0  0  0  0  0
   -2.1032    7.7510   -4.3594 C   0  0  0  0  0  0  0  0  0  0  0  0
   -2.2038    8.9632   -3.6117 N   0  0  0  0  0  0  0  0  0  0  0  0
   -1.0667    9.6124   -3.1121 C   0  0  0  0  0  0  0  0  0  0  0  0
   -3.4638    9.4037   -3.1452 C   0  0  0  0  0  0  0  0  0  0  0  0
   -0.6690    7.4797   -4.7914 C   0  0  0  0  0  0  0  0  0  0  0  0
   -2.9182    7.8674   -5.6387 C   0  0  0  0  0  0  0  0  0  0  0  0
   -3.5343    4.8578   -1.0679 O   0  0  0  0  0  0  0  0  0  0  0  0
   -3.8130    2.3652   -1.9401 C   0  0  0  0  0  0  0  0  0  0  0  0
   -3.0193    1.1942   -2.3227 C   0  0  0  0  0  0  0  0  0  0  0  0
   -1.4331   -0.2773   -4.7216 O   0  0  0  0  0  0  0  0  0  0  0  0
   -3.9934   -1.9413   -2.7886 C   0  0  0  0  0  0  0  0  0  0  0  0
   -1.0619   -2.4081   -1.6995 O   0  0  0  0  0  0  0  0  0  0  0  0
    2.6117   -1.5727   -3.2148 C   0  0  0  0  0  0  0  0  0  0  0  0
    2.0505   -0.1601   -3.5629 C   0  0  0  0  0  0  0  0  0  0  0  0
    2.0566    0.6316   -2.2987 C   0  0  0  0  0  0  0  0  0  0  0  0
    1.6650    2.0049   -2.5137 N   0  0  0  0  0  0  0  0  0  0  0  0
    2.3961    2.7032   -3.5746 C   0  0  0  0  0  0  0  0  0  0  0  0
    2.4869    1.8225   -4.8388 C   0  0  0  0  0  0  0  0  0  0  0  0
    2.9518    0.4658   -4.5163 O   0  0  0  0  0  0  0  0  0  0  0  0
    2.3050   -4.7306   -2.7772 O   0  0  0  0  0  0  0  0  0  0  0  0
    3.3229   -5.0401   -0.1536 C   0  0  0  0  0  0  0  0  0  0  0  0
    4.6969   -4.7101    0.4784 C   0  0  0  0  0  0  0  0  0  0  0  0
    4.6374   -3.4615    1.3851 C   0  0  0  0  0  0  0  0  0  0  0  0
    4.8742   -0.5644    1.9185 O   0  0  0  0  0  0  0  0  0  0  0  0
    0.0404    2.7023    0.7017 C   0  0  0  0  0  0  0  0  0  0  0  0
   -0.3895    4.0164    0.5339 C   0  0  0  0  0  0  0  0  0  0  0  0
   -0.0899    4.7123   -0.6821 C   0  0  0  0  0  0  0  0  0  0  0  0
    0.5858    4.0092   -1.6729 C   0  0  0  0  0  0  0  0  0  0  0  0
    0.9992    2.6891   -1.4928 C   0  0  0  0  0  0  0  0  0  0  0  0
    0.7319    2.0180   -0.2880 C   0  0  0  0  0  0  0  0  0  0  0  0
   -4.6389    0.5975   -3.9866 F   0  0  0  0  0  0  0  0  0  0  0  0
  1  2  1  0  0  0  0
  2  3  1  0  0  0  0
  2  5  1  0  0  0  0
  3  4  1  0  0  0  0
  5  6  4  0  0  0  0
  5 10  4  0  0  0  0
  6  7  4  0  0  0  0
  7  8  4  0  0  0  0
  8  9  4  0  0  0  0
  9 10  4  0  0  0  0
 10 11  1  0  0  0  0
 11 12  4  0  0  0  0
 11 15  4  0  0  0  0
 12 13  1  0  0  0  0
 12 68  4  0  0  0  0
 13 14  1  0  0  0  0
 15 16  1  0  0  0  0
 15 67  4  0  0  0  0
 16 17  1  0  0  0  0
 17 18  1  0  0  0  0
 17 19  1  0  0  0  0
 17 20  1  0  0  0  0
 20 21  1  0  0  0  0
 21 22  1  0  0  0  0
 22 23  1  0  0  0  0
 22 66  2  0  0  0  0
 23 24  1  0  0  0  0
 23 65  1  0  0  0  0
 24 25  1  0  0  0  0
 25 26  1  0  0  0  0
 25 63  1  0  0  0  0
 26 27  1  0  0  0  0
 26 62  2  0  0  0  0
 27 28  1  0  0  0  0
 27 55  1  0  0  0  0
 28 29  1  0  0  0  0
 29 30  1  0  0  0  0
 29 54  2  0  0  0  0
 30 31  1  0  0  0  0
 30 34  1  0  0  0  0
 31 32  1  0  0  0  0
 31 33  1  0  0  0  0
 34 35  1  0  0  0  0
 34 53  1  0  0  0  0
 35 36  1  0  0  0  0
 35 52  2  0  0  0  0
 36 37  1  0  0  0  0
 36 51  1  0  0  0  0
 36 73  1  0  0  0  0
 37 38  1  0  0  0  0
 38 39  1  0  0  0  0
 39 40  1  0  0  0  0
 39 50  1  0  0  0  0
 40 41  1  0  0  0  0
 40 49  2  0  0  0  0
 41 42  1  0  0  0  0
 42 43  1  0  0  0  0
 43 44  1  0  0  0  0
 43 47  1  0  0  0  0
 43 48  1  0  0  0  0
 44 45  1  0  0  0  0
 44 46  1  0  0  0  0
 50 51  1  0  0  0  0
 55 56  1  0  0  0  0
 56 57  1  0  0  0  0
 56 61  1  0  0  0  0
 57 58  1  0  0  0  0
 58 59  1  0  0  0  0
 58 71  1  0  0  0  0
 59 60  1  0  0  0  0
 60 61  1  0  0  0  0
 63 64  1  0  0  0  0
 64 65  1  0  0  0  0
 67 68  4  0  0  0  0
 67 72  4  0  0  0  0
 68 69  4  0  0  0  0
 69 70  4  0  0  0  0
 70 71  4  0  0  0  0
 71 72  4  0  0  0  0
M  END
$$$$
