mol_ETKDG0_331
  PyMOL3.1          3D                             0

 73 79  0  0  0  0  0  0  0  0999 V2000
    3.5179    2.7599    3.1913 C   0  0  0  0  0  0  0  0  0  0  0  0
    3.9356    3.2170    1.8554 C   0  0  0  0  0  0  0  0  0  0  0  0
    3.3599    4.4597    1.4451 O   0  0  0  0  0  0  0  0  0  0  0  0
    2.0575    4.4121    0.9267 C   0  0  0  0  0  0  0  0  0  0  0  0
    5.3978    3.3583    1.7485 C   0  0  0  0  0  0  0  0  0  0  0  0
    5.9269    4.5077    2.1139 N   0  0  0  0  0  0  0  0  0  0  0  0
    7.2559    4.7109    2.0742 C   0  0  0  0  0  0  0  0  0  0  0  0
    8.1362    3.7106    1.6549 C   0  0  0  0  0  0  0  0  0  0  0  0
    7.5996    2.4759    1.2709 C   0  0  0  0  0  0  0  0  0  0  0  0
    6.2036    2.3083    1.3093 C   0  0  0  0  0  0  0  0  0  0  0  0
    5.6455    1.0365    0.8935 C   0  0  0  0  0  0  0  0  0  0  0  0
    5.6924   -0.0848    1.6525 N   0  0  0  0  0  0  0  0  0  0  0  0
    6.2590   -0.2301    3.0357 C   0  0  0  0  0  0  0  0  0  0  0  0
    7.5438   -0.9356    3.0700 C   0  0  0  0  0  0  0  0  0  0  0  0
    4.9230    0.7967   -0.3055 C   0  0  0  0  0  0  0  0  0  0  0  0
    4.5347    1.7335   -1.4250 C   0  0  0  0  0  0  0  0  0  0  0  0
    5.5694    1.7385   -2.6351 C   0  0  0  0  0  0  0  0  0  0  0  0
    5.3054    2.9631   -3.5032 C   0  0  0  0  0  0  0  0  0  0  0  0
    6.9694    1.8599   -2.1695 C   0  0  0  0  0  0  0  0  0  0  0  0
    5.4359    0.4660   -3.4473 C   0  0  0  0  0  0  0  0  0  0  0  0
    4.1883    0.3403   -4.3046 O   0  0  0  0  0  0  0  0  0  0  0  0
    4.2222   -0.0264   -5.6925 C   0  0  0  0  0  0  0  0  0  0  0  0
    2.9326   -0.2340   -6.4499 C   0  0  0  0  0  0  0  0  0  0  0  0
    1.7884    0.0952   -5.6771 N   0  0  0  0  0  0  0  0  0  0  0  0
    0.5322   -0.0536   -6.2664 N   0  0  0  0  0  0  0  0  0  0  0  0
   -0.4732   -0.7378   -5.6308 C   0  0  0  0  0  0  0  0  0  0  0  0
   -0.2048   -1.2814   -4.2671 C   0  0  0  0  0  0  0  0  0  0  0  0
   -1.3017   -1.0137   -3.3588 N   0  0  0  0  0  0  0  0  0  0  0  0
   -1.3345    0.0975   -2.5797 C   0  0  0  0  0  0  0  0  0  0  0  0
   -2.4638    0.1838   -1.6096 C   0  0  0  0  0  0  0  0  0  0  0  0
   -3.5186    1.2987   -1.9256 C   0  0  0  0  0  0  0  0  0  0  0  0
   -4.7339    1.1879   -1.0595 C   0  0  0  0  0  0  0  0  0  0  0  0
   -3.8700    1.3617   -3.3830 C   0  0  0  0  0  0  0  0  0  0  0  0
   -1.8764    0.3436   -0.2787 N   0  0  0  0  0  0  0  0  0  0  0  0
   -1.4595   -0.7718    0.3717 C   0  0  0  0  0  0  0  0  0  0  0  0
   -0.8543   -0.8049    1.7477 C   0  0  0  0  0  0  0  0  0  0  0  0
    0.5554   -0.2734    1.6685 C   0  0  0  0  0  0  0  0  0  0  0  0
    1.2162   -0.3135    3.0145 C   0  0  0  0  0  0  0  0  0  0  0  0
    1.1744   -1.6981    3.5066 N   0  0  0  0  0  0  0  0  0  0  0  0
    2.3118   -2.3512    3.8689 C   0  0  0  0  0  0  0  0  0  0  0  0
    2.4256   -3.7301    3.7656 C   0  0  0  0  0  0  0  0  0  0  0  0
    2.6228   -4.8680    3.7431 C   0  0  0  0  0  0  0  0  0  0  0  0
    2.6493   -6.2655    3.6700 C   0  0  0  0  0  0  0  0  0  0  0  0
    2.5042   -6.8091    4.9720 N   0  0  0  0  0  0  0  0  0  0  0  0
    1.7907   -7.9886    5.2042 C   0  0  0  0  0  0  0  0  0  0  0  0
    3.3298   -6.3400    6.0185 C   0  0  0  0  0  0  0  0  0  0  0  0
    3.9550   -6.7581    3.0547 C   0  0  0  0  0  0  0  0  0  0  0  0
    1.5378   -6.7222    2.7445 C   0  0  0  0  0  0  0  0  0  0  0  0
    3.2840   -1.7147    4.2437 O   0  0  0  0  0  0  0  0  0  0  0  0
   -0.1073   -2.3220    3.5565 C   0  0  0  0  0  0  0  0  0  0  0  0
   -0.8056   -2.2471    2.2746 C   0  0  0  0  0  0  0  0  0  0  0  0
   -1.5966   -1.8508   -0.2276 O   0  0  0  0  0  0  0  0  0  0  0  0
   -1.6585    1.6952    0.2587 C   0  0  0  0  0  0  0  0  0  0  0  0
   -0.4238    0.9005   -2.6008 O   0  0  0  0  0  0  0  0  0  0  0  0
    0.1448   -2.8196   -4.3139 C   0  0  0  0  0  0  0  0  0  0  0  0
    0.7164   -3.4107   -2.9864 C   0  0  0  0  0  0  0  0  0  0  0  0
    2.0586   -2.7882   -2.7275 C   0  0  0  0  0  0  0  0  0  0  0  0
    2.7485   -3.4063   -1.6057 N   0  0  0  0  0  0  0  0  0  0  0  0
    2.8585   -4.8559   -1.6558 C   0  0  0  0  0  0  0  0  0  0  0  0
    1.5146   -5.4876   -2.0387 C   0  0  0  0  0  0  0  0  0  0  0  0
    0.9098   -4.8363   -3.2129 O   0  0  0  0  0  0  0  0  0  0  0  0
   -1.5849   -0.9189   -6.1474 O   0  0  0  0  0  0  0  0  0  0  0  0
    0.3340    0.6192   -7.5465 C   0  0  0  0  0  0  0  0  0  0  0  0
    1.5239    0.3483   -8.4804 C   0  0  0  0  0  0  0  0  0  0  0  0
    2.8811    0.5361   -7.7934 C   0  0  0  0  0  0  0  0  0  0  0  0
    5.2635   -0.1989   -6.3561 O   0  0  0  0  0  0  0  0  0  0  0  0
    4.5764   -0.5602   -0.2184 C   0  0  0  0  0  0  0  0  0  0  0  0
    5.0705   -1.0635    0.9824 C   0  0  0  0  0  0  0  0  0  0  0  0
    4.8308   -2.4317    1.3145 C   0  0  0  0  0  0  0  0  0  0  0  0
    4.0620   -3.1818    0.4296 C   0  0  0  0  0  0  0  0  0  0  0  0
    3.5476   -2.6395   -0.7547 C   0  0  0  0  0  0  0  0  0  0  0  0
    3.8198   -1.3154   -1.0956 C   0  0  0  0  0  0  0  0  0  0  0  0
   -1.6290   -0.0837    2.6421 F   0  0  0  0  0  0  0  0  0  0  0  0
  1  2  1  0  0  0  0
  2  3  1  0  0  0  0
  2  5  1  0  0  0  0
  3  4  1  0  0  0  0
  5  6  4  0  0  0  0
  5 10  4  0  0  0  0
  6  7  4  0  0  0  0
  7  8  4  0  0  0  0
  8  9  4  0  0  0  0
  9 10  4  0  0  0  0
 10 11  1  0  0  0  0
 11 12  4  0  0  0  0
 11 15  4  0  0  0  0
 12 13  1  0  0  0  0
 12 68  4  0  0  0  0
 13 14  1  0  0  0  0
 15 16  1  0  0  0  0
 15 67  4  0  0  0  0
 16 17  1  0  0  0  0
 17 18  1  0  0  0  0
 17 19  1  0  0  0  0
 17 20  1  0  0  0  0
 20 21  1  0  0  0  0
 21 22  1  0  0  0  0
 22 23  1  0  0  0  0
 22 66  2  0  0  0  0
 23 24  1  0  0  0  0
 23 65  1  0  0  0  0
 24 25  1  0  0  0  0
 25 26  1  0  0  0  0
 25 63  1  0  0  0  0
 26 27  1  0  0  0  0
 26 62  2  0  0  0  0
 27 28  1  0  0  0  0
 27 55  1  0  0  0  0
 28 29  1  0  0  0  0
 29 30  1  0  0  0  0
 29 54  2  0  0  0  0
 30 31  1  0  0  0  0
 30 34  1  0  0  0  0
 31 32  1  0  0  0  0
 31 33  1  0  0  0  0
 34 35  1  0  0  0  0
 34 53  1  0  0  0  0
 35 36  1  0  0  0  0
 35 52  2  0  0  0  0
 36 37  1  0  0  0  0
 36 51  1  0  0  0  0
 36 73  1  0  0  0  0
 37 38  1  0  0  0  0
 38 39  1  0  0  0  0
 39 40  1  0  0  0  0
 39 50  1  0  0  0  0
 40 41  1  0  0  0  0
 40 49  2  0  0  0  0
 41 42  1  0  0  0  0
 42 43  1  0  0  0  0
 43 44  1  0  0  0  0
 43 47  1  0  0  0  0
 43 48  1  0  0  0  0
 44 45  1  0  0  0  0
 44 46  1  0  0  0  0
 50 51  1  0  0  0  0
 55 56  1  0  0  0  0
 56 57  1  0  0  0  0
 56 61  1  0  0  0  0
 57 58  1  0  0  0  0
 58 59  1  0  0  0  0
 58 71  1  0  0  0  0
 59 60  1  0  0  0  0
 60 61  1  0  0  0  0
 63 64  1  0  0  0  0
 64 65  1  0  0  0  0
 67 68  4  0  0  0  0
 67 72  4  0  0  0  0
 68 69  4  0  0  0  0
 69 70  4  0  0  0  0
 70 71  4  0  0  0  0
 71 72  4  0  0  0  0
M  END
$$$$
