mol_ETKDG4_215
  PyMOL3.1          3D                             0

 73 79  0  0  0  0  0  0  0  0999 V2000
    2.9032    1.5778   -3.5352 C   0  0  0  0  0  0  0  0  0  0  0  0
    1.4632    1.8063   -3.2693 C   0  0  0  0  0  0  0  0  0  0  0  0
    0.5776    1.2202   -4.2077 O   0  0  0  0  0  0  0  0  0  0  0  0
    0.3874   -0.1708   -4.1158 C   0  0  0  0  0  0  0  0  0  0  0  0
    1.1138    3.2379   -3.1786 C   0  0  0  0  0  0  0  0  0  0  0  0
    1.0615    3.9365   -4.3006 N   0  0  0  0  0  0  0  0  0  0  0  0
    0.7973    5.2596   -4.2925 C   0  0  0  0  0  0  0  0  0  0  0  0
    0.5807    5.9570   -3.1046 C   0  0  0  0  0  0  0  0  0  0  0  0
    0.6386    5.2414   -1.9090 C   0  0  0  0  0  0  0  0  0  0  0  0
    0.8833    3.8600   -1.9637 C   0  0  0  0  0  0  0  0  0  0  0  0
    0.9052    3.1412   -0.7213 C   0  0  0  0  0  0  0  0  0  0  0  0
    2.0139    3.0448    0.0427 N   0  0  0  0  0  0  0  0  0  0  0  0
    3.3939    3.5652   -0.2612 C   0  0  0  0  0  0  0  0  0  0  0  0
    3.7658    4.7361    0.5274 C   0  0  0  0  0  0  0  0  0  0  0  0
   -0.1601    2.3956   -0.1549 C   0  0  0  0  0  0  0  0  0  0  0  0
   -1.5153    2.0337   -0.6946 C   0  0  0  0  0  0  0  0  0  0  0  0
   -2.6987    3.0345   -0.4107 C   0  0  0  0  0  0  0  0  0  0  0  0
   -3.9691    2.3715   -0.9109 C   0  0  0  0  0  0  0  0  0  0  0  0
   -2.5853    4.2858   -1.2187 C   0  0  0  0  0  0  0  0  0  0  0  0
   -2.8270    3.3750    1.0596 C   0  0  0  0  0  0  0  0  0  0  0  0
   -3.7102    2.4591    1.8640 O   0  0  0  0  0  0  0  0  0  0  0  0
   -4.6921    2.8986    2.7979 C   0  0  0  0  0  0  0  0  0  0  0  0
   -5.5380    1.8682    3.5262 C   0  0  0  0  0  0  0  0  0  0  0  0
   -5.4140    0.5791    2.9048 N   0  0  0  0  0  0  0  0  0  0  0  0
   -6.1583   -0.4625    3.4570 N   0  0  0  0  0  0  0  0  0  0  0  0
   -5.5727   -1.6246    3.8775 C   0  0  0  0  0  0  0  0  0  0  0  0
   -4.1029   -1.7897    3.6949 C   0  0  0  0  0  0  0  0  0  0  0  0
   -3.7330   -3.1461    3.3656 N   0  0  0  0  0  0  0  0  0  0  0  0
   -3.4799   -3.5503    2.1185 C   0  0  0  0  0  0  0  0  0  0  0  0
   -2.8994   -4.9137    1.9764 C   0  0  0  0  0  0  0  0  0  0  0  0
   -3.9336   -6.0123    1.5681 C   0  0  0  0  0  0  0  0  0  0  0  0
   -3.3434   -7.3809    1.5142 C   0  0  0  0  0  0  0  0  0  0  0  0
   -5.1794   -5.9574    2.4083 C   0  0  0  0  0  0  0  0  0  0  0  0
   -1.7815   -4.7719    1.0448 N   0  0  0  0  0  0  0  0  0  0  0  0
   -0.5780   -4.3274    1.5414 C   0  0  0  0  0  0  0  0  0  0  0  0
    0.6404   -4.0327    0.7098 C   0  0  0  0  0  0  0  0  0  0  0  0
    1.9378   -4.0691    1.5174 C   0  0  0  0  0  0  0  0  0  0  0  0
    3.0989   -3.6609    0.6660 C   0  0  0  0  0  0  0  0  0  0  0  0
    2.8218   -2.3599    0.0257 N   0  0  0  0  0  0  0  0  0  0  0  0
    3.6582   -1.2870    0.1280 C   0  0  0  0  0  0  0  0  0  0  0  0
    4.7300   -1.2966    0.9967 C   0  0  0  0  0  0  0  0  0  0  0  0
    5.6929   -1.2362    1.6332 C   0  0  0  0  0  0  0  0  0  0  0  0
    6.8019   -1.3843    2.4911 C   0  0  0  0  0  0  0  0  0  0  0  0
    7.9378   -1.7783    1.7349 N   0  0  0  0  0  0  0  0  0  0  0  0
    8.8128   -0.8155    1.1965 C   0  0  0  0  0  0  0  0  0  0  0  0
    8.1068   -3.1098    1.3189 C   0  0  0  0  0  0  0  0  0  0  0  0
    6.4914   -2.4230    3.5550 C   0  0  0  0  0  0  0  0  0  0  0  0
    7.0825   -0.0934    3.2339 C   0  0  0  0  0  0  0  0  0  0  0  0
    3.4460   -0.2573   -0.5399 O   0  0  0  0  0  0  0  0  0  0  0  0
    1.5963   -2.2461   -0.7110 C   0  0  0  0  0  0  0  0  0  0  0  0
    0.4423   -2.6304    0.1439 C   0  0  0  0  0  0  0  0  0  0  0  0
   -0.5052   -4.1215    2.7694 O   0  0  0  0  0  0  0  0  0  0  0  0
   -2.0247   -4.9557   -0.3984 C   0  0  0  0  0  0  0  0  0  0  0  0
   -3.5951   -2.7743    1.1848 O   0  0  0  0  0  0  0  0  0  0  0  0
   -3.3493   -1.3891    5.0169 C   0  0  0  0  0  0  0  0  0  0  0  0
   -1.8084   -1.4235    4.8880 C   0  0  0  0  0  0  0  0  0  0  0  0
   -1.4148   -0.1526    4.2271 C   0  0  0  0  0  0  0  0  0  0  0  0
    0.0125   -0.0175    4.1519 N   0  0  0  0  0  0  0  0  0  0  0  0
    0.7176   -0.2069    5.4350 C   0  0  0  0  0  0  0  0  0  0  0  0
    0.2080   -1.4572    6.1631 C   0  0  0  0  0  0  0  0  0  0  0  0
   -1.2538   -1.4775    6.2233 O   0  0  0  0  0  0  0  0  0  0  0  0
   -6.2197   -2.5191    4.4569 O   0  0  0  0  0  0  0  0  0  0  0  0
   -7.6051   -0.2502    3.4858 C   0  0  0  0  0  0  0  0  0  0  0  0
   -7.8937    1.1159    4.1475 C   0  0  0  0  0  0  0  0  0  0  0  0
   -7.0518    2.2462    3.5364 C   0  0  0  0  0  0  0  0  0  0  0  0
   -4.9026    4.1008    3.0787 O   0  0  0  0  0  0  0  0  0  0  0  0
    0.3724    1.9214    1.0513 C   0  0  0  0  0  0  0  0  0  0  0  0
    1.7007    2.3240    1.1224 C   0  0  0  0  0  0  0  0  0  0  0  0
    2.5069    1.9165    2.2334 C   0  0  0  0  0  0  0  0  0  0  0  0
    1.9032    1.1272    3.2014 C   0  0  0  0  0  0  0  0  0  0  0  0
    0.5682    0.7527    3.1305 C   0  0  0  0  0  0  0  0  0  0  0  0
   -0.2217    1.1335    2.0280 C   0  0  0  0  0  0  0  0  0  0  0  0
    0.7976   -4.9494   -0.3082 F   0  0  0  0  0  0  0  0  0  0  0  0
  1  2  1  0  0  0  0
  2  3  1  0  0  0  0
  2  5  1  0  0  0  0
  3  4  1  0  0  0  0
  5  6  4  0  0  0  0
  5 10  4  0  0  0  0
  6  7  4  0  0  0  0
  7  8  4  0  0  0  0
  8  9  4  0  0  0  0
  9 10  4  0  0  0  0
 10 11  1  0  0  0  0
 11 12  4  0  0  0  0
 11 15  4  0  0  0  0
 12 13  1  0  0  0  0
 12 68  4  0  0  0  0
 13 14  1  0  0  0  0
 15 16  1  0  0  0  0
 15 67  4  0  0  0  0
 16 17  1  0  0  0  0
 17 18  1  0  0  0  0
 17 19  1  0  0  0  0
 17 20  1  0  0  0  0
 20 21  1  0  0  0  0
 21 22  1  0  0  0  0
 22 23  1  0  0  0  0
 22 66  2  0  0  0  0
 23 24  1  0  0  0  0
 23 65  1  0  0  0  0
 24 25  1  0  0  0  0
 25 26  1  0  0  0  0
 25 63  1  0  0  0  0
 26 27  1  0  0  0  0
 26 62  2  0  0  0  0
 27 28  1  0  0  0  0
 27 55  1  0  0  0  0
 28 29  1  0  0  0  0
 29 30  1  0  0  0  0
 29 54  2  0  0  0  0
 30 31  1  0  0  0  0
 30 34  1  0  0  0  0
 31 32  1  0  0  0  0
 31 33  1  0  0  0  0
 34 35  1  0  0  0  0
 34 53  1  0  0  0  0
 35 36  1  0  0  0  0
 35 52  2  0  0  0  0
 36 37  1  0  0  0  0
 36 51  1  0  0  0  0
 36 73  1  0  0  0  0
 37 38  1  0  0  0  0
 38 39  1  0  0  0  0
 39 40  1  0  0  0  0
 39 50  1  0  0  0  0
 40 41  1  0  0  0  0
 40 49  2  0  0  0  0
 41 42  1  0  0  0  0
 42 43  1  0  0  0  0
 43 44  1  0  0  0  0
 43 47  1  0  0  0  0
 43 48  1  0  0  0  0
 44 45  1  0  0  0  0
 44 46  1  0  0  0  0
 50 51  1  0  0  0  0
 55 56  1  0  0  0  0
 56 57  1  0  0  0  0
 56 61  1  0  0  0  0
 57 58  1  0  0  0  0
 58 59  1  0  0  0  0
 58 71  1  0  0  0  0
 59 60  1  0  0  0  0
 60 61  1  0  0  0  0
 63 64  1  0  0  0  0
 64 65  1  0  0  0  0
 67 68  4  0  0  0  0
 67 72  4  0  0  0  0
 68 69  4  0  0  0  0
 69 70  4  0  0  0  0
 70 71  4  0  0  0  0
 71 72  4  0  0  0  0
M  END
$$$$
