mol_ETKDG3_174
  PyMOL3.1          3D                             0

 73 79  0  0  0  0  0  0  0  0999 V2000
    3.5062    0.1315    1.0637 C   0  0  0  0  0  0  0  0  0  0  0  0
    2.9644   -0.4422   -0.1810 C   0  0  0  0  0  0  0  0  0  0  0  0
    2.7248   -1.8401   -0.1635 O   0  0  0  0  0  0  0  0  0  0  0  0
    1.6230   -2.3036    0.5786 C   0  0  0  0  0  0  0  0  0  0  0  0
    3.8175   -0.1664   -1.3523 C   0  0  0  0  0  0  0  0  0  0  0  0
    4.8793   -0.9298   -1.5356 N   0  0  0  0  0  0  0  0  0  0  0  0
    5.7332   -0.7056   -2.5596 C   0  0  0  0  0  0  0  0  0  0  0  0
    5.5363    0.3414   -3.4675 C   0  0  0  0  0  0  0  0  0  0  0  0
    4.4245    1.1653   -3.2844 C   0  0  0  0  0  0  0  0  0  0  0  0
    3.5461    0.8858   -2.2250 C   0  0  0  0  0  0  0  0  0  0  0  0
    2.3851    1.7285   -2.0730 C   0  0  0  0  0  0  0  0  0  0  0  0
    2.4492    2.9887   -1.5759 N   0  0  0  0  0  0  0  0  0  0  0  0
    3.6511    3.6955   -1.0249 C   0  0  0  0  0  0  0  0  0  0  0  0
    4.1835    4.7127   -1.9362 C   0  0  0  0  0  0  0  0  0  0  0  0
    1.0403    1.3743   -2.3636 C   0  0  0  0  0  0  0  0  0  0  0  0
    0.4388    0.0566   -2.7983 C   0  0  0  0  0  0  0  0  0  0  0  0
    0.4872   -0.2411   -4.3523 C   0  0  0  0  0  0  0  0  0  0  0  0
    0.1215   -1.7141   -4.5582 C   0  0  0  0  0  0  0  0  0  0  0  0
    1.8247   -0.1024   -4.9399 C   0  0  0  0  0  0  0  0  0  0  0  0
   -0.4386    0.6382   -5.1151 C   0  0  0  0  0  0  0  0  0  0  0  0
   -1.8858    0.3266   -5.1146 O   0  0  0  0  0  0  0  0  0  0  0  0
   -2.7757    0.6982   -6.1552 C   0  0  0  0  0  0  0  0  0  0  0  0
   -4.2379    0.3892   -5.9768 C   0  0  0  0  0  0  0  0  0  0  0  0
   -4.4699   -0.1922   -4.6905 N   0  0  0  0  0  0  0  0  0  0  0  0
   -5.7623   -0.5538   -4.3634 N   0  0  0  0  0  0  0  0  0  0  0  0
   -6.3412   -0.1061   -3.2080 C   0  0  0  0  0  0  0  0  0  0  0  0
   -5.5570    0.8060   -2.3158 C   0  0  0  0  0  0  0  0  0  0  0  0
   -5.7542    0.5237   -0.9086 N   0  0  0  0  0  0  0  0  0  0  0  0
   -4.8218   -0.0772   -0.1412 C   0  0  0  0  0  0  0  0  0  0  0  0
   -5.1164   -0.1465    1.3194 C   0  0  0  0  0  0  0  0  0  0  0  0
   -5.6295   -1.5381    1.7992 C   0  0  0  0  0  0  0  0  0  0  0  0
   -6.0904   -1.5472    3.2143 C   0  0  0  0  0  0  0  0  0  0  0  0
   -6.5988   -2.1749    0.8608 C   0  0  0  0  0  0  0  0  0  0  0  0
   -3.8930    0.2637    2.0262 N   0  0  0  0  0  0  0  0  0  0  0  0
   -3.6486    1.6100    2.2163 C   0  0  0  0  0  0  0  0  0  0  0  0
   -2.4151    2.1750    2.8891 C   0  0  0  0  0  0  0  0  0  0  0  0
   -2.5129    3.6835    3.1817 C   0  0  0  0  0  0  0  0  0  0  0  0
   -1.2364    4.2089    3.7682 C   0  0  0  0  0  0  0  0  0  0  0  0
   -0.0825    3.8240    2.9310 N   0  0  0  0  0  0  0  0  0  0  0  0
    0.8627    4.7012    2.4706 C   0  0  0  0  0  0  0  0  0  0  0  0
    0.6577    6.0678    2.3845 C   0  0  0  0  0  0  0  0  0  0  0  0
    0.6542    7.2289    2.2711 C   0  0  0  0  0  0  0  0  0  0  0  0
    0.5402    8.6296    2.1687 C   0  0  0  0  0  0  0  0  0  0  0  0
    1.7748    9.2469    2.5716 N   0  0  0  0  0  0  0  0  0  0  0  0
    2.0960    9.2902    3.9525 C   0  0  0  0  0  0  0  0  0  0  0  0
    2.8562    9.3332    1.6611 C   0  0  0  0  0  0  0  0  0  0  0  0
    0.1850    9.0194    0.7437 C   0  0  0  0  0  0  0  0  0  0  0  0
   -0.6001    9.1163    3.0402 C   0  0  0  0  0  0  0  0  0  0  0  0
    1.9403    4.2556    2.0487 O   0  0  0  0  0  0  0  0  0  0  0  0
    0.0235    2.4448    2.5820 C   0  0  0  0  0  0  0  0  0  0  0  0
   -1.2389    1.9643    1.9496 C   0  0  0  0  0  0  0  0  0  0  0  0
   -4.5044    2.4109    1.7933 O   0  0  0  0  0  0  0  0  0  0  0  0
   -2.9155   -0.7691    2.4127 C   0  0  0  0  0  0  0  0  0  0  0  0
   -3.7618   -0.4451   -0.6166 O   0  0  0  0  0  0  0  0  0  0  0  0
   -5.9393    2.3106   -2.6024 C   0  0  0  0  0  0  0  0  0  0  0  0
   -5.0953    3.3328   -1.8029 C   0  0  0  0  0  0  0  0  0  0  0  0
   -3.7480    3.3649   -2.4171 C   0  0  0  0  0  0  0  0  0  0  0  0
   -2.8915    4.3191   -1.7807 N   0  0  0  0  0  0  0  0  0  0  0  0
   -3.4445    5.6798   -1.6909 C   0  0  0  0  0  0  0  0  0  0  0  0
   -4.9053    5.6399   -1.1893 C   0  0  0  0  0  0  0  0  0  0  0  0
   -5.7019    4.6469   -1.9257 O   0  0  0  0  0  0  0  0  0  0  0  0
   -7.5080   -0.4050   -2.9062 O   0  0  0  0  0  0  0  0  0  0  0  0
   -6.4204   -1.4852   -5.2888 C   0  0  0  0  0  0  0  0  0  0  0  0
   -6.2579   -0.9656   -6.7402 C   0  0  0  0  0  0  0  0  0  0  0  0
   -4.8067   -0.5630   -7.0646 C   0  0  0  0  0  0  0  0  0  0  0  0
   -2.4502    1.2467   -7.2355 O   0  0  0  0  0  0  0  0  0  0  0  0
    0.3166    2.5446   -2.0549 C   0  0  0  0  0  0  0  0  0  0  0  0
    1.2136    3.5005   -1.5799 C   0  0  0  0  0  0  0  0  0  0  0  0
    0.7289    4.7821   -1.1738 C   0  0  0  0  0  0  0  0  0  0  0  0
   -0.6427    5.0027   -1.2439 C   0  0  0  0  0  0  0  0  0  0  0  0
   -1.5256    4.0457   -1.7184 C   0  0  0  0  0  0  0  0  0  0  0  0
   -1.0509    2.7764   -2.1181 C   0  0  0  0  0  0  0  0  0  0  0  0
   -2.2012    1.5343    4.1012 F   0  0  0  0  0  0  0  0  0  0  0  0
  1  2  1  0  0  0  0
  2  3  1  0  0  0  0
  2  5  1  0  0  0  0
  3  4  1  0  0  0  0
  5  6  4  0  0  0  0
  5 10  4  0  0  0  0
  6  7  4  0  0  0  0
  7  8  4  0  0  0  0
  8  9  4  0  0  0  0
  9 10  4  0  0  0  0
 10 11  1  0  0  0  0
 11 12  4  0  0  0  0
 11 15  4  0  0  0  0
 12 13  1  0  0  0  0
 12 68  4  0  0  0  0
 13 14  1  0  0  0  0
 15 16  1  0  0  0  0
 15 67  4  0  0  0  0
 16 17  1  0  0  0  0
 17 18  1  0  0  0  0
 17 19  1  0  0  0  0
 17 20  1  0  0  0  0
 20 21  1  0  0  0  0
 21 22  1  0  0  0  0
 22 23  1  0  0  0  0
 22 66  2  0  0  0  0
 23 24  1  0  0  0  0
 23 65  1  0  0  0  0
 24 25  1  0  0  0  0
 25 26  1  0  0  0  0
 25 63  1  0  0  0  0
 26 27  1  0  0  0  0
 26 62  2  0  0  0  0
 27 28  1  0  0  0  0
 27 55  1  0  0  0  0
 28 29  1  0  0  0  0
 29 30  1  0  0  0  0
 29 54  2  0  0  0  0
 30 31  1  0  0  0  0
 30 34  1  0  0  0  0
 31 32  1  0  0  0  0
 31 33  1  0  0  0  0
 34 35  1  0  0  0  0
 34 53  1  0  0  0  0
 35 36  1  0  0  0  0
 35 52  2  0  0  0  0
 36 37  1  0  0  0  0
 36 51  1  0  0  0  0
 36 73  1  0  0  0  0
 37 38  1  0  0  0  0
 38 39  1  0  0  0  0
 39 40  1  0  0  0  0
 39 50  1  0  0  0  0
 40 41  1  0  0  0  0
 40 49  2  0  0  0  0
 41 42  1  0  0  0  0
 42 43  1  0  0  0  0
 43 44  1  0  0  0  0
 43 47  1  0  0  0  0
 43 48  1  0  0  0  0
 44 45  1  0  0  0  0
 44 46  1  0  0  0  0
 50 51  1  0  0  0  0
 55 56  1  0  0  0  0
 56 57  1  0  0  0  0
 56 61  1  0  0  0  0
 57 58  1  0  0  0  0
 58 59  1  0  0  0  0
 58 71  1  0  0  0  0
 59 60  1  0  0  0  0
 60 61  1  0  0  0  0
 63 64  1  0  0  0  0
 64 65  1  0  0  0  0
 67 68  4  0  0  0  0
 67 72  4  0  0  0  0
 68 69  4  0  0  0  0
 69 70  4  0  0  0  0
 70 71  4  0  0  0  0
 71 72  4  0  0  0  0
M  END
$$$$
