mol_ETKDG1_97
  PyMOL3.1          3D                             0

 73 79  0  0  0  0  0  0  0  0999 V2000
   -3.9551    4.2579    4.7607 C   0  0  0  0  0  0  0  0  0  0  0  0
   -4.6139    2.9589    4.4528 C   0  0  0  0  0  0  0  0  0  0  0  0
   -5.8545    3.0750    3.7624 O   0  0  0  0  0  0  0  0  0  0  0  0
   -5.7860    3.3647    2.3813 C   0  0  0  0  0  0  0  0  0  0  0  0
   -4.8598    2.1383    5.6653 C   0  0  0  0  0  0  0  0  0  0  0  0
   -5.8679    2.4806    6.4558 N   0  0  0  0  0  0  0  0  0  0  0  0
   -6.1169    1.8177    7.6088 C   0  0  0  0  0  0  0  0  0  0  0  0
   -5.3188    0.7499    8.0321 C   0  0  0  0  0  0  0  0  0  0  0  0
   -4.2426    0.3788    7.2207 C   0  0  0  0  0  0  0  0  0  0  0  0
   -4.0339    1.0670    6.0188 C   0  0  0  0  0  0  0  0  0  0  0  0
   -2.9523    0.6224    5.1714 C   0  0  0  0  0  0  0  0  0  0  0  0
   -1.6583    1.0041    5.3411 N   0  0  0  0  0  0  0  0  0  0  0  0
   -1.0921    1.8989    6.4166 C   0  0  0  0  0  0  0  0  0  0  0  0
   -0.6452    3.2213    5.9460 C   0  0  0  0  0  0  0  0  0  0  0  0
   -3.0778   -0.2353    4.0412 C   0  0  0  0  0  0  0  0  0  0  0  0
   -4.2864   -0.8277    3.3569 C   0  0  0  0  0  0  0  0  0  0  0  0
   -4.8551   -2.2165    3.8870 C   0  0  0  0  0  0  0  0  0  0  0  0
   -5.4948   -2.1025    5.2564 C   0  0  0  0  0  0  0  0  0  0  0  0
   -5.9843   -2.5898    2.9663 C   0  0  0  0  0  0  0  0  0  0  0  0
   -3.8111   -3.3428    3.9276 C   0  0  0  0  0  0  0  0  0  0  0  0
   -3.7368   -4.2613    2.7332 O   0  0  0  0  0  0  0  0  0  0  0  0
   -3.6961   -5.6935    2.8047 C   0  0  0  0  0  0  0  0  0  0  0  0
   -3.4876   -6.4959    1.5234 C   0  0  0  0  0  0  0  0  0  0  0  0
   -3.7850   -5.6944    0.3718 N   0  0  0  0  0  0  0  0  0  0  0  0
   -3.6348   -6.2904   -0.8757 N   0  0  0  0  0  0  0  0  0  0  0  0
   -2.8253   -5.7379   -1.8289 C   0  0  0  0  0  0  0  0  0  0  0  0
   -2.1170   -4.4509   -1.5187 C   0  0  0  0  0  0  0  0  0  0  0  0
   -2.0062   -3.6047   -2.6853 N   0  0  0  0  0  0  0  0  0  0  0  0
   -2.7964   -2.5499   -2.9080 C   0  0  0  0  0  0  0  0  0  0  0  0
   -2.4126   -1.6712   -4.0464 C   0  0  0  0  0  0  0  0  0  0  0  0
   -3.3016   -1.8308   -5.3241 C   0  0  0  0  0  0  0  0  0  0  0  0
   -2.7467   -1.1274   -6.5189 C   0  0  0  0  0  0  0  0  0  0  0  0
   -3.6827   -3.2570   -5.6059 C   0  0  0  0  0  0  0  0  0  0  0  0
   -2.3970   -0.3097   -3.4957 N   0  0  0  0  0  0  0  0  0  0  0  0
   -1.2539    0.1176   -2.8368 C   0  0  0  0  0  0  0  0  0  0  0  0
   -1.1087    1.4403   -2.1249 C   0  0  0  0  0  0  0  0  0  0  0  0
    0.3155    1.9981   -2.1516 C   0  0  0  0  0  0  0  0  0  0  0  0
    0.3787    3.2573   -1.3785 C   0  0  0  0  0  0  0  0  0  0  0  0
   -0.2332    3.1515   -0.0342 N   0  0  0  0  0  0  0  0  0  0  0  0
    0.2822    3.7713    1.0572 C   0  0  0  0  0  0  0  0  0  0  0  0
    1.3313    4.6535    0.9275 C   0  0  0  0  0  0  0  0  0  0  0  0
    2.1973    5.4257    0.9276 C   0  0  0  0  0  0  0  0  0  0  0  0
    3.3030    6.2699    0.7442 C   0  0  0  0  0  0  0  0  0  0  0  0
    4.4870    5.5042    0.6904 N   0  0  0  0  0  0  0  0  0  0  0  0
    4.8757    4.7649    1.8201 C   0  0  0  0  0  0  0  0  0  0  0  0
    5.3629    5.5092   -0.4065 C   0  0  0  0  0  0  0  0  0  0  0  0
    3.4241    7.2806    1.8800 C   0  0  0  0  0  0  0  0  0  0  0  0
    3.1107    7.0829   -0.5295 C   0  0  0  0  0  0  0  0  0  0  0  0
   -0.2090    3.5698    2.1839 O   0  0  0  0  0  0  0  0  0  0  0  0
   -1.4472    2.4192    0.1032 C   0  0  0  0  0  0  0  0  0  0  0  0
   -1.5387    1.2090   -0.6808 C   0  0  0  0  0  0  0  0  0  0  0  0
   -0.2836   -0.6631   -2.7903 O   0  0  0  0  0  0  0  0  0  0  0  0
   -3.6326    0.4871   -3.5530 C   0  0  0  0  0  0  0  0  0  0  0  0
   -3.6798   -2.2699   -2.1182 O   0  0  0  0  0  0  0  0  0  0  0  0
   -0.6692   -4.7373   -0.9675 C   0  0  0  0  0  0  0  0  0  0  0  0
    0.1647   -3.4635   -0.6539 C   0  0  0  0  0  0  0  0  0  0  0  0
   -0.2191   -2.9896    0.7031 C   0  0  0  0  0  0  0  0  0  0  0  0
    0.5688   -1.8238    1.1069 N   0  0  0  0  0  0  0  0  0  0  0  0
    2.0355   -2.0629    1.0207 C   0  0  0  0  0  0  0  0  0  0  0  0
    2.4051   -2.6403   -0.3535 C   0  0  0  0  0  0  0  0  0  0  0  0
    1.5719   -3.8113   -0.6763 O   0  0  0  0  0  0  0  0  0  0  0  0
   -2.6297   -6.2956   -2.9256 O   0  0  0  0  0  0  0  0  0  0  0  0
   -4.4443   -7.4910   -1.1023 C   0  0  0  0  0  0  0  0  0  0  0  0
   -4.2360   -8.4673    0.0739 C   0  0  0  0  0  0  0  0  0  0  0  0
   -4.3741   -7.7822    1.4443 C   0  0  0  0  0  0  0  0  0  0  0  0
   -3.8194   -6.3286    3.8685 O   0  0  0  0  0  0  0  0  0  0  0  0
   -1.7621   -0.3615    3.5705 C   0  0  0  0  0  0  0  0  0  0  0  0
   -0.9325    0.4336    4.3625 C   0  0  0  0  0  0  0  0  0  0  0  0
    0.4633    0.5276    4.0287 C   0  0  0  0  0  0  0  0  0  0  0  0
    0.9210   -0.2115    2.9288 C   0  0  0  0  0  0  0  0  0  0  0  0
    0.0762   -1.0515    2.1854 C   0  0  0  0  0  0  0  0  0  0  0  0
   -1.2996   -1.1092    2.4898 C   0  0  0  0  0  0  0  0  0  0  0  0
   -1.8800    2.4193   -2.6970 F   0  0  0  0  0  0  0  0  0  0  0  0
  1  2  1  0  0  0  0
  2  3  1  0  0  0  0
  2  5  1  0  0  0  0
  3  4  1  0  0  0  0
  5  6  4  0  0  0  0
  5 10  4  0  0  0  0
  6  7  4  0  0  0  0
  7  8  4  0  0  0  0
  8  9  4  0  0  0  0
  9 10  4  0  0  0  0
 10 11  1  0  0  0  0
 11 12  4  0  0  0  0
 11 15  4  0  0  0  0
 12 13  1  0  0  0  0
 12 68  4  0  0  0  0
 13 14  1  0  0  0  0
 15 16  1  0  0  0  0
 15 67  4  0  0  0  0
 16 17  1  0  0  0  0
 17 18  1  0  0  0  0
 17 19  1  0  0  0  0
 17 20  1  0  0  0  0
 20 21  1  0  0  0  0
 21 22  1  0  0  0  0
 22 23  1  0  0  0  0
 22 66  2  0  0  0  0
 23 24  1  0  0  0  0
 23 65  1  0  0  0  0
 24 25  1  0  0  0  0
 25 26  1  0  0  0  0
 25 63  1  0  0  0  0
 26 27  1  0  0  0  0
 26 62  2  0  0  0  0
 27 28  1  0  0  0  0
 27 55  1  0  0  0  0
 28 29  1  0  0  0  0
 29 30  1  0  0  0  0
 29 54  2  0  0  0  0
 30 31  1  0  0  0  0
 30 34  1  0  0  0  0
 31 32  1  0  0  0  0
 31 33  1  0  0  0  0
 34 35  1  0  0  0  0
 34 53  1  0  0  0  0
 35 36  1  0  0  0  0
 35 52  2  0  0  0  0
 36 37  1  0  0  0  0
 36 51  1  0  0  0  0
 36 73  1  0  0  0  0
 37 38  1  0  0  0  0
 38 39  1  0  0  0  0
 39 40  1  0  0  0  0
 39 50  1  0  0  0  0
 40 41  1  0  0  0  0
 40 49  2  0  0  0  0
 41 42  1  0  0  0  0
 42 43  1  0  0  0  0
 43 44  1  0  0  0  0
 43 47  1  0  0  0  0
 43 48  1  0  0  0  0
 44 45  1  0  0  0  0
 44 46  1  0  0  0  0
 50 51  1  0  0  0  0
 55 56  1  0  0  0  0
 56 57  1  0  0  0  0
 56 61  1  0  0  0  0
 57 58  1  0  0  0  0
 58 59  1  0  0  0  0
 58 71  1  0  0  0  0
 59 60  1  0  0  0  0
 60 61  1  0  0  0  0
 63 64  1  0  0  0  0
 64 65  1  0  0  0  0
 67 68  4  0  0  0  0
 67 72  4  0  0  0  0
 68 69  4  0  0  0  0
 69 70  4  0  0  0  0
 70 71  4  0  0  0  0
 71 72  4  0  0  0  0
M  END
$$$$
