mol_ETKDG2_104
  PyMOL3.1          3D                             0

 73 79  0  0  0  0  0  0  0  0999 V2000
    3.7187    0.3825   -4.7446 C   0  0  0  0  0  0  0  0  0  0  0  0
    3.0452    1.1946   -3.7105 C   0  0  0  0  0  0  0  0  0  0  0  0
    3.8073    1.4361   -2.5434 O   0  0  0  0  0  0  0  0  0  0  0  0
    3.9980    0.3613   -1.6569 C   0  0  0  0  0  0  0  0  0  0  0  0
    2.5967    2.5043   -4.2255 C   0  0  0  0  0  0  0  0  0  0  0  0
    3.5099    3.4408   -4.4109 N   0  0  0  0  0  0  0  0  0  0  0  0
    3.1848    4.6415   -4.9361 C   0  0  0  0  0  0  0  0  0  0  0  0
    1.8726    4.9478   -5.3075 C   0  0  0  0  0  0  0  0  0  0  0  0
    0.8916    3.9693   -5.1297 C   0  0  0  0  0  0  0  0  0  0  0  0
    1.2627    2.7453   -4.5647 C   0  0  0  0  0  0  0  0  0  0  0  0
    0.2270    1.7748   -4.3345 C   0  0  0  0  0  0  0  0  0  0  0  0
   -0.3049    0.9963   -5.3086 N   0  0  0  0  0  0  0  0  0  0  0  0
    0.1022    0.9310   -6.7512 C   0  0  0  0  0  0  0  0  0  0  0  0
   -0.8717    1.4973   -7.6674 C   0  0  0  0  0  0  0  0  0  0  0  0
   -0.3313    1.4533   -3.0702 C   0  0  0  0  0  0  0  0  0  0  0  0
    0.0128    1.9114   -1.6799 C   0  0  0  0  0  0  0  0  0  0  0  0
   -0.5863    3.2915   -1.2024 C   0  0  0  0  0  0  0  0  0  0  0  0
    0.0561    4.4756   -1.8929 C   0  0  0  0  0  0  0  0  0  0  0  0
   -0.2127    3.4675    0.2408 C   0  0  0  0  0  0  0  0  0  0  0  0
   -2.0894    3.3571   -1.3692 C   0  0  0  0  0  0  0  0  0  0  0  0
   -2.8519    2.7756   -0.1984 O   0  0  0  0  0  0  0  0  0  0  0  0
   -3.9801    3.3735    0.4100 C   0  0  0  0  0  0  0  0  0  0  0  0
   -4.6118    2.6704    1.6041 C   0  0  0  0  0  0  0  0  0  0  0  0
   -3.6744    1.7542    2.1852 N   0  0  0  0  0  0  0  0  0  0  0  0
   -4.0422    1.0735    3.3416 N   0  0  0  0  0  0  0  0  0  0  0  0
   -3.9391   -0.2905    3.4213 C   0  0  0  0  0  0  0  0  0  0  0  0
   -3.4857   -1.0479    2.2098 C   0  0  0  0  0  0  0  0  0  0  0  0
   -2.6081   -2.1560    2.5202 N   0  0  0  0  0  0  0  0  0  0  0  0
   -1.2730   -2.1195    2.3494 C   0  0  0  0  0  0  0  0  0  0  0  0
   -0.5564   -3.4117    2.5053 C   0  0  0  0  0  0  0  0  0  0  0  0
    0.1696   -3.5968    3.8661 C   0  0  0  0  0  0  0  0  0  0  0  0
    0.5719   -5.0085    4.1147 C   0  0  0  0  0  0  0  0  0  0  0  0
   -0.5245   -2.9617    5.0196 C   0  0  0  0  0  0  0  0  0  0  0  0
    0.3520   -3.5373    1.3588 N   0  0  0  0  0  0  0  0  0  0  0  0
   -0.1505   -4.0218    0.1651 C   0  0  0  0  0  0  0  0  0  0  0  0
    0.6399   -4.1330   -1.1184 C   0  0  0  0  0  0  0  0  0  0  0  0
   -0.0518   -4.9832   -2.1852 C   0  0  0  0  0  0  0  0  0  0  0  0
    0.7059   -4.9835   -3.4658 C   0  0  0  0  0  0  0  0  0  0  0  0
    1.0407   -3.6112   -3.8895 N   0  0  0  0  0  0  0  0  0  0  0  0
    0.8296   -3.1363   -5.1518 C   0  0  0  0  0  0  0  0  0  0  0  0
   -0.0074   -3.7717   -6.0345 C   0  0  0  0  0  0  0  0  0  0  0  0
   -0.6489   -4.2362   -6.8671 C   0  0  0  0  0  0  0  0  0  0  0  0
   -1.4926   -4.9457   -7.7512 C   0  0  0  0  0  0  0  0  0  0  0  0
   -0.8009   -5.1861   -8.9796 N   0  0  0  0  0  0  0  0  0  0  0  0
   -0.7964   -4.2143   -9.9949 C   0  0  0  0  0  0  0  0  0  0  0  0
    0.2277   -6.1662   -9.0204 C   0  0  0  0  0  0  0  0  0  0  0  0
   -2.7694   -4.1622   -7.9862 C   0  0  0  0  0  0  0  0  0  0  0  0
   -1.9031   -6.2611   -7.1288 C   0  0  0  0  0  0  0  0  0  0  0  0
    1.3662   -2.0814   -5.5074 O   0  0  0  0  0  0  0  0  0  0  0  0
    1.6155   -2.7478   -2.9091 C   0  0  0  0  0  0  0  0  0  0  0  0
    0.8011   -2.7262   -1.6683 C   0  0  0  0  0  0  0  0  0  0  0  0
   -1.3425   -4.3654    0.1425 O   0  0  0  0  0  0  0  0  0  0  0  0
    1.7270   -3.0261    1.4924 C   0  0  0  0  0  0  0  0  0  0  0  0
   -0.7208   -1.0992    1.9731 O   0  0  0  0  0  0  0  0  0  0  0  0
   -4.7445   -1.6087    1.4435 C   0  0  0  0  0  0  0  0  0  0  0  0
   -4.4076   -2.3565    0.1293 C   0  0  0  0  0  0  0  0  0  0  0  0
   -4.0564   -1.3303   -0.8770 C   0  0  0  0  0  0  0  0  0  0  0  0
   -3.7835   -1.9147   -2.1630 N   0  0  0  0  0  0  0  0  0  0  0  0
   -4.8636   -2.7827   -2.6719 C   0  0  0  0  0  0  0  0  0  0  0  0
   -5.3096   -3.7688   -1.5838 C   0  0  0  0  0  0  0  0  0  0  0  0
   -5.5859   -3.0812   -0.3114 O   0  0  0  0  0  0  0  0  0  0  0  0
   -4.2561   -0.9147    4.4444 O   0  0  0  0  0  0  0  0  0  0  0  0
   -4.4655    1.9063    4.4640 C   0  0  0  0  0  0  0  0  0  0  0  0
   -5.5163    2.9250    3.9747 C   0  0  0  0  0  0  0  0  0  0  0  0
   -5.0698    3.6643    2.7099 C   0  0  0  0  0  0  0  0  0  0  0  0
   -4.4962    4.4455    0.0297 O   0  0  0  0  0  0  0  0  0  0  0  0
   -1.2762    0.4679   -3.3739 C   0  0  0  0  0  0  0  0  0  0  0  0
   -1.2298    0.2124   -4.7434 C   0  0  0  0  0  0  0  0  0  0  0  0
   -2.0877   -0.7892   -5.2924 C   0  0  0  0  0  0  0  0  0  0  0  0
   -2.9187   -1.4834   -4.4073 C   0  0  0  0  0  0  0  0  0  0  0  0
   -2.9424   -1.2098   -3.0357 C   0  0  0  0  0  0  0  0  0  0  0  0
   -2.0978   -0.2279   -2.5032 C   0  0  0  0  0  0  0  0  0  0  0  0
    1.8781   -4.7065   -0.8774 F   0  0  0  0  0  0  0  0  0  0  0  0
  1  2  1  0  0  0  0
  2  3  1  0  0  0  0
  2  5  1  0  0  0  0
  3  4  1  0  0  0  0
  5  6  4  0  0  0  0
  5 10  4  0  0  0  0
  6  7  4  0  0  0  0
  7  8  4  0  0  0  0
  8  9  4  0  0  0  0
  9 10  4  0  0  0  0
 10 11  1  0  0  0  0
 11 12  4  0  0  0  0
 11 15  4  0  0  0  0
 12 13  1  0  0  0  0
 12 68  4  0  0  0  0
 13 14  1  0  0  0  0
 15 16  1  0  0  0  0
 15 67  4  0  0  0  0
 16 17  1  0  0  0  0
 17 18  1  0  0  0  0
 17 19  1  0  0  0  0
 17 20  1  0  0  0  0
 20 21  1  0  0  0  0
 21 22  1  0  0  0  0
 22 23  1  0  0  0  0
 22 66  2  0  0  0  0
 23 24  1  0  0  0  0
 23 65  1  0  0  0  0
 24 25  1  0  0  0  0
 25 26  1  0  0  0  0
 25 63  1  0  0  0  0
 26 27  1  0  0  0  0
 26 62  2  0  0  0  0
 27 28  1  0  0  0  0
 27 55  1  0  0  0  0
 28 29  1  0  0  0  0
 29 30  1  0  0  0  0
 29 54  2  0  0  0  0
 30 31  1  0  0  0  0
 30 34  1  0  0  0  0
 31 32  1  0  0  0  0
 31 33  1  0  0  0  0
 34 35  1  0  0  0  0
 34 53  1  0  0  0  0
 35 36  1  0  0  0  0
 35 52  2  0  0  0  0
 36 37  1  0  0  0  0
 36 51  1  0  0  0  0
 36 73  1  0  0  0  0
 37 38  1  0  0  0  0
 38 39  1  0  0  0  0
 39 40  1  0  0  0  0
 39 50  1  0  0  0  0
 40 41  1  0  0  0  0
 40 49  2  0  0  0  0
 41 42  1  0  0  0  0
 42 43  1  0  0  0  0
 43 44  1  0  0  0  0
 43 47  1  0  0  0  0
 43 48  1  0  0  0  0
 44 45  1  0  0  0  0
 44 46  1  0  0  0  0
 50 51  1  0  0  0  0
 55 56  1  0  0  0  0
 56 57  1  0  0  0  0
 56 61  1  0  0  0  0
 57 58  1  0  0  0  0
 58 59  1  0  0  0  0
 58 71  1  0  0  0  0
 59 60  1  0  0  0  0
 60 61  1  0  0  0  0
 63 64  1  0  0  0  0
 64 65  1  0  0  0  0
 67 68  4  0  0  0  0
 67 72  4  0  0  0  0
 68 69  4  0  0  0  0
 69 70  4  0  0  0  0
 70 71  4  0  0  0  0
 71 72  4  0  0  0  0
M  END
$$$$
