mol_ETKDG0_333
  PyMOL3.1          3D                             0

 73 79  0  0  0  0  0  0  0  0999 V2000
   -0.3318   -4.8211    1.9644 C   0  0  0  0  0  0  0  0  0  0  0  0
   -0.0962   -3.4295    2.3888 C   0  0  0  0  0  0  0  0  0  0  0  0
   -1.0221   -2.9153    3.3254 O   0  0  0  0  0  0  0  0  0  0  0  0
   -2.2324   -2.4258    2.8168 C   0  0  0  0  0  0  0  0  0  0  0  0
    1.2461   -3.2213    2.9671 C   0  0  0  0  0  0  0  0  0  0  0  0
    1.4776   -3.6600    4.1937 N   0  0  0  0  0  0  0  0  0  0  0  0
    2.6970   -3.5348    4.7651 C   0  0  0  0  0  0  0  0  0  0  0  0
    3.7709   -2.9523    4.0870 C   0  0  0  0  0  0  0  0  0  0  0  0
    3.5510   -2.4936    2.7857 C   0  0  0  0  0  0  0  0  0  0  0  0
    2.2613   -2.6143    2.2453 C   0  0  0  0  0  0  0  0  0  0  0  0
    2.0417   -2.0994    0.9269 C   0  0  0  0  0  0  0  0  0  0  0  0
    2.3225   -2.8055   -0.1887 N   0  0  0  0  0  0  0  0  0  0  0  0
    2.8215   -4.2217   -0.2831 C   0  0  0  0  0  0  0  0  0  0  0  0
    4.1961   -4.3566   -0.7226 C   0  0  0  0  0  0  0  0  0  0  0  0
    1.4509   -0.8415    0.6096 C   0  0  0  0  0  0  0  0  0  0  0  0
    0.8293    0.2284    1.4650 C   0  0  0  0  0  0  0  0  0  0  0  0
    1.7714    1.3303    2.1112 C   0  0  0  0  0  0  0  0  0  0  0  0
    2.6058    0.7681    3.2439 C   0  0  0  0  0  0  0  0  0  0  0  0
    0.8774    2.3451    2.7660 C   0  0  0  0  0  0  0  0  0  0  0  0
    2.6916    2.0415    1.1245 C   0  0  0  0  0  0  0  0  0  0  0  0
    2.0950    3.2558    0.4420 O   0  0  0  0  0  0  0  0  0  0  0  0
    2.8293    4.3974    0.0184 C   0  0  0  0  0  0  0  0  0  0  0  0
    2.0831    5.5490   -0.6433 C   0  0  0  0  0  0  0  0  0  0  0  0
    0.6694    5.3753   -0.5073 N   0  0  0  0  0  0  0  0  0  0  0  0
   -0.1743    6.3575   -1.0197 N   0  0  0  0  0  0  0  0  0  0  0  0
   -1.1947    6.0290   -1.8763 C   0  0  0  0  0  0  0  0  0  0  0  0
   -1.3383    4.5928   -2.2854 C   0  0  0  0  0  0  0  0  0  0  0  0
   -2.7197    4.1684   -2.3940 N   0  0  0  0  0  0  0  0  0  0  0  0
   -3.3430    3.4062   -1.4725 C   0  0  0  0  0  0  0  0  0  0  0  0
   -4.6879    2.8905   -1.8630 C   0  0  0  0  0  0  0  0  0  0  0  0
   -5.8820    3.6608   -1.2111 C   0  0  0  0  0  0  0  0  0  0  0  0
   -7.1921    3.3173   -1.8404 C   0  0  0  0  0  0  0  0  0  0  0  0
   -5.6485    5.1387   -1.1427 C   0  0  0  0  0  0  0  0  0  0  0  0
   -4.6922    1.4437   -1.5697 N   0  0  0  0  0  0  0  0  0  0  0  0
   -4.1439    0.5752   -2.4985 C   0  0  0  0  0  0  0  0  0  0  0  0
   -4.0021   -0.9234   -2.3091 C   0  0  0  0  0  0  0  0  0  0  0  0
   -2.8338   -1.1571   -1.3689 C   0  0  0  0  0  0  0  0  0  0  0  0
   -2.6211   -2.6267   -1.1148 C   0  0  0  0  0  0  0  0  0  0  0  0
   -2.4051   -3.3011   -2.4007 N   0  0  0  0  0  0  0  0  0  0  0  0
   -1.2660   -4.0597   -2.6060 C   0  0  0  0  0  0  0  0  0  0  0  0
   -0.7669   -4.2980   -3.8825 C   0  0  0  0  0  0  0  0  0  0  0  0
   -0.2315   -4.5718   -4.8900 C   0  0  0  0  0  0  0  0  0  0  0  0
    0.2455   -4.7379   -6.2183 C   0  0  0  0  0  0  0  0  0  0  0  0
    1.3671   -5.6026   -6.3047 N   0  0  0  0  0  0  0  0  0  0  0  0
    2.5155   -5.3705   -5.5336 C   0  0  0  0  0  0  0  0  0  0  0  0
    1.4449   -6.6699   -7.2171 C   0  0  0  0  0  0  0  0  0  0  0  0
    0.6352   -3.3800   -6.7956 C   0  0  0  0  0  0  0  0  0  0  0  0
   -0.8890   -5.2687   -7.0669 C   0  0  0  0  0  0  0  0  0  0  0  0
   -0.6205   -4.4943   -1.6596 O   0  0  0  0  0  0  0  0  0  0  0  0
   -3.4165   -3.0981   -3.4071 C   0  0  0  0  0  0  0  0  0  0  0  0
   -3.7084   -1.6577   -3.6333 C   0  0  0  0  0  0  0  0  0  0  0  0
   -3.7166    1.0709   -3.5592 O   0  0  0  0  0  0  0  0  0  0  0  0
   -5.1550    0.9893   -0.2490 C   0  0  0  0  0  0  0  0  0  0  0  0
   -2.7764    3.0713   -0.4456 O   0  0  0  0  0  0  0  0  0  0  0  0
   -0.6292    4.3867   -3.6763 C   0  0  0  0  0  0  0  0  0  0  0  0
   -0.6261    2.9300   -4.1907 C   0  0  0  0  0  0  0  0  0  0  0  0
    0.4327    2.2040   -3.4486 C   0  0  0  0  0  0  0  0  0  0  0  0
    0.5733    0.8539   -3.9168 N   0  0  0  0  0  0  0  0  0  0  0  0
    0.7638    0.7203   -5.3720 C   0  0  0  0  0  0  0  0  0  0  0  0
   -0.2653    1.5669   -6.1293 C   0  0  0  0  0  0  0  0  0  0  0  0
   -0.3120    2.9406   -5.6059 O   0  0  0  0  0  0  0  0  0  0  0  0
   -1.9492    6.8849   -2.3637 O   0  0  0  0  0  0  0  0  0  0  0  0
    0.0594    7.7145   -0.5357 C   0  0  0  0  0  0  0  0  0  0  0  0
    1.5635    8.0472   -0.6368 C   0  0  0  0  0  0  0  0  0  0  0  0
    2.4580    6.9418   -0.0563 C   0  0  0  0  0  0  0  0  0  0  0  0
    4.0598    4.5153    0.1545 O   0  0  0  0  0  0  0  0  0  0  0  0
    1.4588   -0.8362   -0.7879 C   0  0  0  0  0  0  0  0  0  0  0  0
    1.9920   -2.0452   -1.2364 C   0  0  0  0  0  0  0  0  0  0  0  0
    2.0835   -2.2910   -2.6391 C   0  0  0  0  0  0  0  0  0  0  0  0
    1.5979   -1.3014   -3.4941 C   0  0  0  0  0  0  0  0  0  0  0  0
    1.0546   -0.1073   -3.0256 C   0  0  0  0  0  0  0  0  0  0  0  0
    0.9829    0.1443   -1.6452 C   0  0  0  0  0  0  0  0  0  0  0  0
   -5.1763   -1.4654   -1.8206 F   0  0  0  0  0  0  0  0  0  0  0  0
  1  2  1  0  0  0  0
  2  3  1  0  0  0  0
  2  5  1  0  0  0  0
  3  4  1  0  0  0  0
  5  6  4  0  0  0  0
  5 10  4  0  0  0  0
  6  7  4  0  0  0  0
  7  8  4  0  0  0  0
  8  9  4  0  0  0  0
  9 10  4  0  0  0  0
 10 11  1  0  0  0  0
 11 12  4  0  0  0  0
 11 15  4  0  0  0  0
 12 13  1  0  0  0  0
 12 68  4  0  0  0  0
 13 14  1  0  0  0  0
 15 16  1  0  0  0  0
 15 67  4  0  0  0  0
 16 17  1  0  0  0  0
 17 18  1  0  0  0  0
 17 19  1  0  0  0  0
 17 20  1  0  0  0  0
 20 21  1  0  0  0  0
 21 22  1  0  0  0  0
 22 23  1  0  0  0  0
 22 66  2  0  0  0  0
 23 24  1  0  0  0  0
 23 65  1  0  0  0  0
 24 25  1  0  0  0  0
 25 26  1  0  0  0  0
 25 63  1  0  0  0  0
 26 27  1  0  0  0  0
 26 62  2  0  0  0  0
 27 28  1  0  0  0  0
 27 55  1  0  0  0  0
 28 29  1  0  0  0  0
 29 30  1  0  0  0  0
 29 54  2  0  0  0  0
 30 31  1  0  0  0  0
 30 34  1  0  0  0  0
 31 32  1  0  0  0  0
 31 33  1  0  0  0  0
 34 35  1  0  0  0  0
 34 53  1  0  0  0  0
 35 36  1  0  0  0  0
 35 52  2  0  0  0  0
 36 37  1  0  0  0  0
 36 51  1  0  0  0  0
 36 73  1  0  0  0  0
 37 38  1  0  0  0  0
 38 39  1  0  0  0  0
 39 40  1  0  0  0  0
 39 50  1  0  0  0  0
 40 41  1  0  0  0  0
 40 49  2  0  0  0  0
 41 42  1  0  0  0  0
 42 43  1  0  0  0  0
 43 44  1  0  0  0  0
 43 47  1  0  0  0  0
 43 48  1  0  0  0  0
 44 45  1  0  0  0  0
 44 46  1  0  0  0  0
 50 51  1  0  0  0  0
 55 56  1  0  0  0  0
 56 57  1  0  0  0  0
 56 61  1  0  0  0  0
 57 58  1  0  0  0  0
 58 59  1  0  0  0  0
 58 71  1  0  0  0  0
 59 60  1  0  0  0  0
 60 61  1  0  0  0  0
 63 64  1  0  0  0  0
 64 65  1  0  0  0  0
 67 68  4  0  0  0  0
 67 72  4  0  0  0  0
 68 69  4  0  0  0  0
 69 70  4  0  0  0  0
 70 71  4  0  0  0  0
 71 72  4  0  0  0  0
M  END
$$$$
