mol_ETKDG1_69
  PyMOL3.1          3D                             0

 73 79  0  0  0  0  0  0  0  0999 V2000
    1.4672   -4.1693    0.7360 C   0  0  0  0  0  0  0  0  0  0  0  0
    0.0074   -3.9904    0.9060 C   0  0  0  0  0  0  0  0  0  0  0  0
   -0.7950   -4.5337   -0.1244 O   0  0  0  0  0  0  0  0  0  0  0  0
   -0.8231   -3.8368   -1.3519 C   0  0  0  0  0  0  0  0  0  0  0  0
   -0.4916   -4.5493    2.1800 C   0  0  0  0  0  0  0  0  0  0  0  0
   -0.5553   -5.8641    2.2949 N   0  0  0  0  0  0  0  0  0  0  0  0
   -0.9633   -6.4476    3.4422 C   0  0  0  0  0  0  0  0  0  0  0  0
   -1.3287   -5.6878    4.5639 C   0  0  0  0  0  0  0  0  0  0  0  0
   -1.2568   -4.2902    4.4656 C   0  0  0  0  0  0  0  0  0  0  0  0
   -0.8521   -3.7268    3.2470 C   0  0  0  0  0  0  0  0  0  0  0  0
   -0.8321   -2.2902    3.1242 C   0  0  0  0  0  0  0  0  0  0  0  0
    0.1908   -1.5132    3.5618 N   0  0  0  0  0  0  0  0  0  0  0  0
    1.4633   -1.9581    4.2305 C   0  0  0  0  0  0  0  0  0  0  0  0
    1.4832   -1.6669    5.6707 C   0  0  0  0  0  0  0  0  0  0  0  0
   -1.8063   -1.5064    2.4505 C   0  0  0  0  0  0  0  0  0  0  0  0
   -3.0476   -1.8932    1.6971 C   0  0  0  0  0  0  0  0  0  0  0  0
   -4.3871   -1.9954    2.5392 C   0  0  0  0  0  0  0  0  0  0  0  0
   -4.3984   -3.2154    3.4505 C   0  0  0  0  0  0  0  0  0  0  0  0
   -5.5065   -2.2336    1.5681 C   0  0  0  0  0  0  0  0  0  0  0  0
   -4.6529   -0.7298    3.3759 C   0  0  0  0  0  0  0  0  0  0  0  0
   -5.3699    0.3720    2.6155 O   0  0  0  0  0  0  0  0  0  0  0  0
   -6.6385    0.9183    2.9799 C   0  0  0  0  0  0  0  0  0  0  0  0
   -7.2222    2.0357    2.1126 C   0  0  0  0  0  0  0  0  0  0  0  0
   -6.9699    1.7468    0.7303 N   0  0  0  0  0  0  0  0  0  0  0  0
   -7.5047    2.6078   -0.2329 N   0  0  0  0  0  0  0  0  0  0  0  0
   -6.7141    3.1793   -1.1854 C   0  0  0  0  0  0  0  0  0  0  0  0
   -5.2298    2.9878   -1.0727 C   0  0  0  0  0  0  0  0  0  0  0  0
   -4.6051    2.7791   -2.3739 N   0  0  0  0  0  0  0  0  0  0  0  0
   -4.1614    1.5706   -2.7947 C   0  0  0  0  0  0  0  0  0  0  0  0
   -3.4357    1.5719   -4.1059 C   0  0  0  0  0  0  0  0  0  0  0  0
   -4.2684    0.8289   -5.2137 C   0  0  0  0  0  0  0  0  0  0  0  0
   -3.5909    0.7834   -6.5381 C   0  0  0  0  0  0  0  0  0  0  0  0
   -5.6642    1.3874   -5.3129 C   0  0  0  0  0  0  0  0  0  0  0  0
   -2.1240    0.9517   -3.8498 N   0  0  0  0  0  0  0  0  0  0  0  0
   -1.1195    1.7392   -3.3188 C   0  0  0  0  0  0  0  0  0  0  0  0
    0.2412    1.2264   -2.9017 C   0  0  0  0  0  0  0  0  0  0  0  0
    0.0516    0.4551   -1.6222 C   0  0  0  0  0  0  0  0  0  0  0  0
    1.3331   -0.1537   -1.1800 C   0  0  0  0  0  0  0  0  0  0  0  0
    2.3159    0.9058   -0.9758 N   0  0  0  0  0  0  0  0  0  0  0  0
    2.9693    0.9586    0.2178 C   0  0  0  0  0  0  0  0  0  0  0  0
    3.5208    2.1168    0.7168 C   0  0  0  0  0  0  0  0  0  0  0  0
    4.0521    3.0022    1.2355 C   0  0  0  0  0  0  0  0  0  0  0  0
    4.6318    4.1713    1.7227 C   0  0  0  0  0  0  0  0  0  0  0  0
    5.7631    4.5671    0.9566 N   0  0  0  0  0  0  0  0  0  0  0  0
    6.7209    5.4572    1.4733 C   0  0  0  0  0  0  0  0  0  0  0  0
    5.7881    4.3555   -0.4332 C   0  0  0  0  0  0  0  0  0  0  0  0
    5.0320    3.9438    3.1738 C   0  0  0  0  0  0  0  0  0  0  0  0
    3.6056    5.3142    1.7064 C   0  0  0  0  0  0  0  0  0  0  0  0
    3.0326   -0.0557    0.9293 O   0  0  0  0  0  0  0  0  0  0  0  0
    2.5252    1.8276   -2.0710 C   0  0  0  0  0  0  0  0  0  0  0  0
    1.2540    2.3585   -2.6265 C   0  0  0  0  0  0  0  0  0  0  0  0
   -1.3699    2.9493   -3.1482 O   0  0  0  0  0  0  0  0  0  0  0  0
   -1.9620   -0.4966   -4.0306 C   0  0  0  0  0  0  0  0  0  0  0  0
   -4.2463    0.5880   -2.0845 O   0  0  0  0  0  0  0  0  0  0  0  0
   -4.6341    4.2814   -0.3775 C   0  0  0  0  0  0  0  0  0  0  0  0
   -3.1253    4.2327   -0.0332 C   0  0  0  0  0  0  0  0  0  0  0  0
   -2.9644    3.3525    1.1548 C   0  0  0  0  0  0  0  0  0  0  0  0
   -1.6089    3.3249    1.6255 N   0  0  0  0  0  0  0  0  0  0  0  0
   -0.9920    4.6304    1.8669 C   0  0  0  0  0  0  0  0  0  0  0  0
   -1.2780    5.5899    0.7006 C   0  0  0  0  0  0  0  0  0  0  0  0
   -2.7050    5.5846    0.3253 O   0  0  0  0  0  0  0  0  0  0  0  0
   -7.1749    3.9010   -2.0861 O   0  0  0  0  0  0  0  0  0  0  0  0
   -8.9516    2.7887   -0.1948 C   0  0  0  0  0  0  0  0  0  0  0  0
   -9.3578    3.1604    1.2502 C   0  0  0  0  0  0  0  0  0  0  0  0
   -8.7669    2.1969    2.2821 C   0  0  0  0  0  0  0  0  0  0  0  0
   -7.2917    0.5351    3.9790 O   0  0  0  0  0  0  0  0  0  0  0  0
   -1.3006   -0.1993    2.5450 C   0  0  0  0  0  0  0  0  0  0  0  0
   -0.0875   -0.2437    3.2290 C   0  0  0  0  0  0  0  0  0  0  0  0
    0.6477    0.9713    3.4273 C   0  0  0  0  0  0  0  0  0  0  0  0
    0.1037    2.1420    2.8848 C   0  0  0  0  0  0  0  0  0  0  0  0
   -1.1062    2.1495    2.1799 C   0  0  0  0  0  0  0  0  0  0  0  0
   -1.8285    0.9659    2.0096 C   0  0  0  0  0  0  0  0  0  0  0  0
    0.7910    0.4477   -3.9016 F   0  0  0  0  0  0  0  0  0  0  0  0
  1  2  1  0  0  0  0
  2  3  1  0  0  0  0
  2  5  1  0  0  0  0
  3  4  1  0  0  0  0
  5  6  4  0  0  0  0
  5 10  4  0  0  0  0
  6  7  4  0  0  0  0
  7  8  4  0  0  0  0
  8  9  4  0  0  0  0
  9 10  4  0  0  0  0
 10 11  1  0  0  0  0
 11 12  4  0  0  0  0
 11 15  4  0  0  0  0
 12 13  1  0  0  0  0
 12 68  4  0  0  0  0
 13 14  1  0  0  0  0
 15 16  1  0  0  0  0
 15 67  4  0  0  0  0
 16 17  1  0  0  0  0
 17 18  1  0  0  0  0
 17 19  1  0  0  0  0
 17 20  1  0  0  0  0
 20 21  1  0  0  0  0
 21 22  1  0  0  0  0
 22 23  1  0  0  0  0
 22 66  2  0  0  0  0
 23 24  1  0  0  0  0
 23 65  1  0  0  0  0
 24 25  1  0  0  0  0
 25 26  1  0  0  0  0
 25 63  1  0  0  0  0
 26 27  1  0  0  0  0
 26 62  2  0  0  0  0
 27 28  1  0  0  0  0
 27 55  1  0  0  0  0
 28 29  1  0  0  0  0
 29 30  1  0  0  0  0
 29 54  2  0  0  0  0
 30 31  1  0  0  0  0
 30 34  1  0  0  0  0
 31 32  1  0  0  0  0
 31 33  1  0  0  0  0
 34 35  1  0  0  0  0
 34 53  1  0  0  0  0
 35 36  1  0  0  0  0
 35 52  2  0  0  0  0
 36 37  1  0  0  0  0
 36 51  1  0  0  0  0
 36 73  1  0  0  0  0
 37 38  1  0  0  0  0
 38 39  1  0  0  0  0
 39 40  1  0  0  0  0
 39 50  1  0  0  0  0
 40 41  1  0  0  0  0
 40 49  2  0  0  0  0
 41 42  1  0  0  0  0
 42 43  1  0  0  0  0
 43 44  1  0  0  0  0
 43 47  1  0  0  0  0
 43 48  1  0  0  0  0
 44 45  1  0  0  0  0
 44 46  1  0  0  0  0
 50 51  1  0  0  0  0
 55 56  1  0  0  0  0
 56 57  1  0  0  0  0
 56 61  1  0  0  0  0
 57 58  1  0  0  0  0
 58 59  1  0  0  0  0
 58 71  1  0  0  0  0
 59 60  1  0  0  0  0
 60 61  1  0  0  0  0
 63 64  1  0  0  0  0
 64 65  1  0  0  0  0
 67 68  4  0  0  0  0
 67 72  4  0  0  0  0
 68 69  4  0  0  0  0
 69 70  4  0  0  0  0
 70 71  4  0  0  0  0
 71 72  4  0  0  0  0
M  END
$$$$
