mol_ETKDG5_284
  PyMOL3.1          3D                             0

 73 79  0  0  0  0  0  0  0  0999 V2000
   -1.4953    4.9422    3.4026 C   0  0  0  0  0  0  0  0  0  0  0  0
   -0.2897    5.7574    3.2683 C   0  0  0  0  0  0  0  0  0  0  0  0
   -0.5328    7.1447    2.9680 O   0  0  0  0  0  0  0  0  0  0  0  0
   -0.6955    7.4767    1.6157 C   0  0  0  0  0  0  0  0  0  0  0  0
    0.5697    5.7089    4.4710 C   0  0  0  0  0  0  0  0  0  0  0  0
    0.2145    6.4352    5.5137 N   0  0  0  0  0  0  0  0  0  0  0  0
    0.9870    6.5024    6.6184 C   0  0  0  0  0  0  0  0  0  0  0  0
    2.1714    5.7729    6.7254 C   0  0  0  0  0  0  0  0  0  0  0  0
    2.5615    4.9881    5.6338 C   0  0  0  0  0  0  0  0  0  0  0  0
    1.7189    4.9256    4.5210 C   0  0  0  0  0  0  0  0  0  0  0  0
    2.0913    4.0603    3.4313 C   0  0  0  0  0  0  0  0  0  0  0  0
    2.8286    4.4785    2.3745 N   0  0  0  0  0  0  0  0  0  0  0  0
    3.3670    5.8600    2.1212 C   0  0  0  0  0  0  0  0  0  0  0  0
    4.7988    5.9777    2.4352 C   0  0  0  0  0  0  0  0  0  0  0  0
    1.6832    2.7099    3.2667 C   0  0  0  0  0  0  0  0  0  0  0  0
    0.7739    1.8310    4.1066 C   0  0  0  0  0  0  0  0  0  0  0  0
    1.5077    0.9842    5.2474 C   0  0  0  0  0  0  0  0  0  0  0  0
    0.4383    0.2592    6.0408 C   0  0  0  0  0  0  0  0  0  0  0  0
    2.1878    1.8294    6.2549 C   0  0  0  0  0  0  0  0  0  0  0  0
    2.5172   -0.0064    4.6702 C   0  0  0  0  0  0  0  0  0  0  0  0
    1.9341   -1.3079    4.2202 O   0  0  0  0  0  0  0  0  0  0  0  0
    2.3505   -2.5885    4.6758 C   0  0  0  0  0  0  0  0  0  0  0  0
    1.6631   -3.8105    4.0941 C   0  0  0  0  0  0  0  0  0  0  0  0
    0.4480   -3.4181    3.4594 N   0  0  0  0  0  0  0  0  0  0  0  0
   -0.3351   -4.4087    2.9004 N   0  0  0  0  0  0  0  0  0  0  0  0
   -0.7468   -4.3154    1.6044 C   0  0  0  0  0  0  0  0  0  0  0  0
   -0.3631   -3.1107    0.8054 C   0  0  0  0  0  0  0  0  0  0  0  0
   -1.4514   -2.6725   -0.0501 N   0  0  0  0  0  0  0  0  0  0  0  0
   -2.2466   -1.6344    0.2612 C   0  0  0  0  0  0  0  0  0  0  0  0
   -3.2285   -1.2064   -0.7748 C   0  0  0  0  0  0  0  0  0  0  0  0
   -4.6682   -1.7325   -0.6212 C   0  0  0  0  0  0  0  0  0  0  0  0
   -5.4401   -1.7069   -1.8896 C   0  0  0  0  0  0  0  0  0  0  0  0
   -4.8294   -2.9467    0.1989 C   0  0  0  0  0  0  0  0  0  0  0  0
   -3.2050    0.2453   -0.8157 N   0  0  0  0  0  0  0  0  0  0  0  0
   -2.2246    0.8440   -1.5359 C   0  0  0  0  0  0  0  0  0  0  0  0
   -2.0200    2.3246   -1.6372 C   0  0  0  0  0  0  0  0  0  0  0  0
   -1.3361    2.7100   -2.9474 C   0  0  0  0  0  0  0  0  0  0  0  0
   -1.0209    4.1658   -2.9530 C   0  0  0  0  0  0  0  0  0  0  0  0
   -0.2600    4.5002   -1.7391 N   0  0  0  0  0  0  0  0  0  0  0  0
    0.9838    5.0412   -1.7936 C   0  0  0  0  0  0  0  0  0  0  0  0
    1.7690    4.7631   -2.8777 C   0  0  0  0  0  0  0  0  0  0  0  0
    2.4329    4.5441   -3.7842 C   0  0  0  0  0  0  0  0  0  0  0  0
    3.0777    4.1045   -4.9650 C   0  0  0  0  0  0  0  0  0  0  0  0
    4.0608    4.9959   -5.4183 N   0  0  0  0  0  0  0  0  0  0  0  0
    5.0171    5.4900   -4.5200 C   0  0  0  0  0  0  0  0  0  0  0  0
    4.2978    5.2153   -6.7887 C   0  0  0  0  0  0  0  0  0  0  0  0
    3.7200    2.7345   -4.7169 C   0  0  0  0  0  0  0  0  0  0  0  0
    2.0162    3.9021   -6.0388 C   0  0  0  0  0  0  0  0  0  0  0  0
    1.4331    5.7023   -0.8494 O   0  0  0  0  0  0  0  0  0  0  0  0
   -0.8603    4.1817   -0.4786 C   0  0  0  0  0  0  0  0  0  0  0  0
   -1.1521    2.7158   -0.4433 C   0  0  0  0  0  0  0  0  0  0  0  0
   -1.4174    0.0992   -2.1333 O   0  0  0  0  0  0  0  0  0  0  0  0
   -4.1558    1.0017    0.0210 C   0  0  0  0  0  0  0  0  0  0  0  0
   -2.0717   -1.0106    1.3015 O   0  0  0  0  0  0  0  0  0  0  0  0
    0.9117   -3.4213   -0.0809 C   0  0  0  0  0  0  0  0  0  0  0  0
    1.4379   -2.1941   -0.8820 C   0  0  0  0  0  0  0  0  0  0  0  0
    2.1391   -1.3076    0.0745 C   0  0  0  0  0  0  0  0  0  0  0  0
    2.7311   -0.1654   -0.5745 N   0  0  0  0  0  0  0  0  0  0  0  0
    3.6015   -0.4753   -1.7120 C   0  0  0  0  0  0  0  0  0  0  0  0
    2.9369   -1.5090   -2.6377 C   0  0  0  0  0  0  0  0  0  0  0  0
    2.3930   -2.6495   -1.8793 O   0  0  0  0  0  0  0  0  0  0  0  0
   -1.4025   -5.2231    1.0667 O   0  0  0  0  0  0  0  0  0  0  0  0
   -0.7440   -5.4872    3.7979 C   0  0  0  0  0  0  0  0  0  0  0  0
    0.4802   -6.0167    4.5592 C   0  0  0  0  0  0  0  0  0  0  0  0
    1.3326   -4.8941    5.1625 C   0  0  0  0  0  0  0  0  0  0  0  0
    3.2525   -2.7771    5.5094 O   0  0  0  0  0  0  0  0  0  0  0  0
    2.2745    2.3488    2.0426 C   0  0  0  0  0  0  0  0  0  0  0  0
    2.9621    3.4511    1.5365 C   0  0  0  0  0  0  0  0  0  0  0  0
    3.6256    3.3434    0.2725 C   0  0  0  0  0  0  0  0  0  0  0  0
    3.5226    2.1297   -0.4016 C   0  0  0  0  0  0  0  0  0  0  0  0
    2.8204    1.0383    0.1267 C   0  0  0  0  0  0  0  0  0  0  0  0
    2.1850    1.1488    1.3655 C   0  0  0  0  0  0  0  0  0  0  0  0
   -3.2000    3.0276   -1.6150 F   0  0  0  0  0  0  0  0  0  0  0  0
  1  2  1  0  0  0  0
  2  3  1  0  0  0  0
  2  5  1  0  0  0  0
  3  4  1  0  0  0  0
  5  6  4  0  0  0  0
  5 10  4  0  0  0  0
  6  7  4  0  0  0  0
  7  8  4  0  0  0  0
  8  9  4  0  0  0  0
  9 10  4  0  0  0  0
 10 11  1  0  0  0  0
 11 12  4  0  0  0  0
 11 15  4  0  0  0  0
 12 13  1  0  0  0  0
 12 68  4  0  0  0  0
 13 14  1  0  0  0  0
 15 16  1  0  0  0  0
 15 67  4  0  0  0  0
 16 17  1  0  0  0  0
 17 18  1  0  0  0  0
 17 19  1  0  0  0  0
 17 20  1  0  0  0  0
 20 21  1  0  0  0  0
 21 22  1  0  0  0  0
 22 23  1  0  0  0  0
 22 66  2  0  0  0  0
 23 24  1  0  0  0  0
 23 65  1  0  0  0  0
 24 25  1  0  0  0  0
 25 26  1  0  0  0  0
 25 63  1  0  0  0  0
 26 27  1  0  0  0  0
 26 62  2  0  0  0  0
 27 28  1  0  0  0  0
 27 55  1  0  0  0  0
 28 29  1  0  0  0  0
 29 30  1  0  0  0  0
 29 54  2  0  0  0  0
 30 31  1  0  0  0  0
 30 34  1  0  0  0  0
 31 32  1  0  0  0  0
 31 33  1  0  0  0  0
 34 35  1  0  0  0  0
 34 53  1  0  0  0  0
 35 36  1  0  0  0  0
 35 52  2  0  0  0  0
 36 37  1  0  0  0  0
 36 51  1  0  0  0  0
 36 73  1  0  0  0  0
 37 38  1  0  0  0  0
 38 39  1  0  0  0  0
 39 40  1  0  0  0  0
 39 50  1  0  0  0  0
 40 41  1  0  0  0  0
 40 49  2  0  0  0  0
 41 42  1  0  0  0  0
 42 43  1  0  0  0  0
 43 44  1  0  0  0  0
 43 47  1  0  0  0  0
 43 48  1  0  0  0  0
 44 45  1  0  0  0  0
 44 46  1  0  0  0  0
 50 51  1  0  0  0  0
 55 56  1  0  0  0  0
 56 57  1  0  0  0  0
 56 61  1  0  0  0  0
 57 58  1  0  0  0  0
 58 59  1  0  0  0  0
 58 71  1  0  0  0  0
 59 60  1  0  0  0  0
 60 61  1  0  0  0  0
 63 64  1  0  0  0  0
 64 65  1  0  0  0  0
 67 68  4  0  0  0  0
 67 72  4  0  0  0  0
 68 69  4  0  0  0  0
 69 70  4  0  0  0  0
 70 71  4  0  0  0  0
 71 72  4  0  0  0  0
M  END
$$$$
