mol_bioactive_17
  PyMOL3.1          3D                             0

 73 79  0  0  0  0  0  0  0  0999 V2000
   -3.9219    1.0113    2.8068 C   0  0  0  0  0  0  0  0  0  0  0  0
   -4.4416   -0.3450    3.0898 C   0  0  0  0  0  0  0  0  0  0  0  0
   -3.4627   -1.3734    3.0229 O   0  0  0  0  0  0  0  0  0  0  0  0
   -2.2310   -1.2928    3.6637 C   0  0  0  0  0  0  0  0  0  0  0  0
   -5.5387   -0.8411    2.2474 C   0  0  0  0  0  0  0  0  0  0  0  0
   -6.4650   -1.1116    3.1567 N   0  0  0  0  0  0  0  0  0  0  0  0
   -7.6874   -1.4741    2.8422 C   0  0  0  0  0  0  0  0  0  0  0  0
   -8.0956   -1.5538    1.5298 C   0  0  0  0  0  0  0  0  0  0  0  0
   -7.1671   -1.2686    0.5209 C   0  0  0  0  0  0  0  0  0  0  0  0
   -5.8653   -0.9224    0.8823 C   0  0  0  0  0  0  0  0  0  0  0  0
   -4.9230   -0.6764   -0.1988 C   0  0  0  0  0  0  0  0  0  0  0  0
   -4.8029    0.5311   -0.8159 N   0  0  0  0  0  0  0  0  0  0  0  0
   -5.5299    1.8056   -0.4867 C   0  0  0  0  0  0  0  0  0  0  0  0
   -6.5553    2.1954   -1.4370 C   0  0  0  0  0  0  0  0  0  0  0  0
   -3.9809   -1.6077   -0.7473 C   0  0  0  0  0  0  0  0  0  0  0  0
   -3.5974   -3.0144   -0.3438 C   0  0  0  0  0  0  0  0  0  0  0  0
   -4.4076   -4.2382   -0.9354 C   0  0  0  0  0  0  0  0  0  0  0  0
   -3.7620   -5.5166   -0.4222 C   0  0  0  0  0  0  0  0  0  0  0  0
   -5.8003   -4.2896   -0.4129 C   0  0  0  0  0  0  0  0  0  0  0  0
   -4.4245   -4.2694   -2.4579 C   0  0  0  0  0  0  0  0  0  0  0  0
   -3.2615   -4.9562   -3.1363 O   0  0  0  0  0  0  0  0  0  0  0  0
   -3.3415   -5.7181   -4.3453 C   0  0  0  0  0  0  0  0  0  0  0  0
   -2.0762   -6.3424   -4.9317 C   0  0  0  0  0  0  0  0  0  0  0  0
   -0.9771   -6.2807   -4.0081 N   0  0  0  0  0  0  0  0  0  0  0  0
    0.2493   -6.8422   -4.3856 N   0  0  0  0  0  0  0  0  0  0  0  0
    1.4189   -6.1079   -4.3618 C   0  0  0  0  0  0  0  0  0  0  0  0
    1.3565   -4.6370   -4.0033 C   0  0  0  0  0  0  0  0  0  0  0  0
    2.5258   -4.1740   -3.2600 N   0  0  0  0  0  0  0  0  0  0  0  0
    2.5819   -3.9668   -1.9341 C   0  0  0  0  0  0  0  0  0  0  0  0
    3.8138   -3.2992   -1.3931 C   0  0  0  0  0  0  0  0  0  0  0  0
    4.8260   -4.2721   -0.6966 C   0  0  0  0  0  0  0  0  0  0  0  0
    6.1971   -3.6971   -0.5458 C   0  0  0  0  0  0  0  0  0  0  0  0
    4.8314   -5.6563   -1.2557 C   0  0  0  0  0  0  0  0  0  0  0  0
    3.3342   -2.2172   -0.5027 N   0  0  0  0  0  0  0  0  0  0  0  0
    2.9153   -1.0094   -1.0613 C   0  0  0  0  0  0  0  0  0  0  0  0
    2.2841    0.1432   -0.2919 C   0  0  0  0  0  0  0  0  0  0  0  0
    0.8449   -0.2323   -0.0154 C   0  0  0  0  0  0  0  0  0  0  0  0
    0.1332    0.8191    0.7552 C   0  0  0  0  0  0  0  0  0  0  0  0
    0.2373    2.1288    0.0952 N   0  0  0  0  0  0  0  0  0  0  0  0
   -0.8903    2.9077   -0.0764 C   0  0  0  0  0  0  0  0  0  0  0  0
   -0.8644    4.1017   -0.7980 C   0  0  0  0  0  0  0  0  0  0  0  0
   -0.9672    5.1549   -1.2866 C   0  0  0  0  0  0  0  0  0  0  0  0
   -0.8557    6.4137   -1.9268 C   0  0  0  0  0  0  0  0  0  0  0  0
   -0.2150    7.3251   -1.0244 N   0  0  0  0  0  0  0  0  0  0  0  0
   -0.9707    7.9834   -0.0281 C   0  0  0  0  0  0  0  0  0  0  0  0
    1.1841    7.4631   -0.9882 C   0  0  0  0  0  0  0  0  0  0  0  0
   -2.2293    6.9384   -2.3117 C   0  0  0  0  0  0  0  0  0  0  0  0
   -0.0735    6.2848   -3.2147 C   0  0  0  0  0  0  0  0  0  0  0  0
   -1.9725    2.5562    0.4011 O   0  0  0  0  0  0  0  0  0  0  0  0
    1.5455    2.5297   -0.3382 C   0  0  0  0  0  0  0  0  0  0  0  0
    2.2905    1.4796   -1.0649 C   0  0  0  0  0  0  0  0  0  0  0  0
    3.0463   -0.8830   -2.2902 O   0  0  0  0  0  0  0  0  0  0  0  0
    3.1846   -2.4970    0.9311 C   0  0  0  0  0  0  0  0  0  0  0  0
    1.6020   -4.2013   -1.2487 O   0  0  0  0  0  0  0  0  0  0  0  0
    1.2623   -3.8147   -5.3445 C   0  0  0  0  0  0  0  0  0  0  0  0
    0.6025   -2.4217   -5.5024 C   0  0  0  0  0  0  0  0  0  0  0  0
   -0.2158   -2.0250   -4.3447 C   0  0  0  0  0  0  0  0  0  0  0  0
   -0.7124   -0.6752   -4.3682 N   0  0  0  0  0  0  0  0  0  0  0  0
   -0.1469    0.2653   -5.2949 C   0  0  0  0  0  0  0  0  0  0  0  0
    1.0888   -0.1340   -6.0184 C   0  0  0  0  0  0  0  0  0  0  0  0
    1.6374   -1.4478   -5.7737 O   0  0  0  0  0  0  0  0  0  0  0  0
    2.5070   -6.6007   -4.6930 O   0  0  0  0  0  0  0  0  0  0  0  0
    0.1948   -8.2575   -4.7573 C   0  0  0  0  0  0  0  0  0  0  0  0
   -0.9500   -8.4841   -5.7688 C   0  0  0  0  0  0  0  0  0  0  0  0
   -2.2675   -7.8346   -5.3440 C   0  0  0  0  0  0  0  0  0  0  0  0
   -4.4064   -5.9028   -4.9648 O   0  0  0  0  0  0  0  0  0  0  0  0
   -3.3284   -0.8663   -1.7535 C   0  0  0  0  0  0  0  0  0  0  0  0
   -3.8565    0.4252   -1.7604 C   0  0  0  0  0  0  0  0  0  0  0  0
   -3.3253    1.3923   -2.6794 C   0  0  0  0  0  0  0  0  0  0  0  0
   -2.2862    0.9909   -3.5232 C   0  0  0  0  0  0  0  0  0  0  0  0
   -1.7567   -0.3065   -3.5040 C   0  0  0  0  0  0  0  0  0  0  0  0
   -2.2907   -1.2592   -2.6064 C   0  0  0  0  0  0  0  0  0  0  0  0
    2.9813    0.3942    0.8691 F   0  0  0  0  0  0  0  0  0  0  0  0
  1  2  1  0  0  0  0
  2  3  1  0  0  0  0
  2  5  1  0  0  0  0
  3  4  1  0  0  0  0
  5  6  4  0  0  0  0
  5 10  4  0  0  0  0
  6  7  4  0  0  0  0
  7  8  4  0  0  0  0
  8  9  4  0  0  0  0
  9 10  4  0  0  0  0
 10 11  1  0  0  0  0
 11 12  4  0  0  0  0
 11 15  4  0  0  0  0
 12 13  1  0  0  0  0
 12 68  4  0  0  0  0
 13 14  1  0  0  0  0
 15 16  1  0  0  0  0
 15 67  4  0  0  0  0
 16 17  1  0  0  0  0
 17 18  1  0  0  0  0
 17 19  1  0  0  0  0
 17 20  1  0  0  0  0
 20 21  1  0  0  0  0
 21 22  1  0  0  0  0
 22 23  1  0  0  0  0
 22 66  2  0  0  0  0
 23 24  1  0  0  0  0
 23 65  1  0  0  0  0
 24 25  1  0  0  0  0
 25 26  1  0  0  0  0
 25 63  1  0  0  0  0
 26 27  1  0  0  0  0
 26 62  2  0  0  0  0
 27 28  1  0  0  0  0
 27 55  1  0  0  0  0
 28 29  1  0  0  0  0
 29 30  1  0  0  0  0
 29 54  2  0  0  0  0
 30 31  1  0  0  0  0
 30 34  1  0  0  0  0
 31 32  1  0  0  0  0
 31 33  1  0  0  0  0
 34 35  1  0  0  0  0
 34 53  1  0  0  0  0
 35 36  1  0  0  0  0
 35 52  2  0  0  0  0
 36 37  1  0  0  0  0
 36 51  1  0  0  0  0
 36 73  1  0  0  0  0
 37 38  1  0  0  0  0
 38 39  1  0  0  0  0
 39 40  1  0  0  0  0
 39 50  1  0  0  0  0
 40 41  1  0  0  0  0
 40 49  2  0  0  0  0
 41 42  1  0  0  0  0
 42 43  1  0  0  0  0
 43 44  1  0  0  0  0
 43 47  1  0  0  0  0
 43 48  1  0  0  0  0
 44 45  1  0  0  0  0
 44 46  1  0  0  0  0
 50 51  1  0  0  0  0
 55 56  1  0  0  0  0
 56 57  1  0  0  0  0
 56 61  1  0  0  0  0
 57 58  1  0  0  0  0
 58 59  1  0  0  0  0
 58 71  1  0  0  0  0
 59 60  1  0  0  0  0
 60 61  1  0  0  0  0
 63 64  1  0  0  0  0
 64 65  1  0  0  0  0
 67 68  4  0  0  0  0
 67 72  4  0  0  0  0
 68 69  4  0  0  0  0
 69 70  4  0  0  0  0
 70 71  4  0  0  0  0
 71 72  4  0  0  0  0
M  END
$$$$
