mol_ETKDG1_77
  PyMOL3.1          3D                             0

 73 79  0  0  0  0  0  0  0  0999 V2000
    2.0471    4.4925    2.7616 C   0  0  0  0  0  0  0  0  0  0  0  0
    1.2493    4.1152    1.5687 C   0  0  0  0  0  0  0  0  0  0  0  0
   -0.1371    3.9569    1.8182 O   0  0  0  0  0  0  0  0  0  0  0  0
   -0.5448    2.8041    2.5124 C   0  0  0  0  0  0  0  0  0  0  0  0
    1.3720    5.1019    0.4821 C   0  0  0  0  0  0  0  0  0  0  0  0
    0.7929    6.2769    0.6566 N   0  0  0  0  0  0  0  0  0  0  0  0
    0.9023    7.2542   -0.2638 C   0  0  0  0  0  0  0  0  0  0  0  0
    1.6386    7.0785   -1.4385 C   0  0  0  0  0  0  0  0  0  0  0  0
    2.2614    5.8447   -1.6442 C   0  0  0  0  0  0  0  0  0  0  0  0
    2.1042    4.8422   -0.6750 C   0  0  0  0  0  0  0  0  0  0  0  0
    2.7090    3.5573   -0.9302 C   0  0  0  0  0  0  0  0  0  0  0  0
    4.0293    3.3127   -0.7664 N   0  0  0  0  0  0  0  0  0  0  0  0
    5.0777    4.2621   -0.2627 C   0  0  0  0  0  0  0  0  0  0  0  0
    6.0072    4.7051   -1.2995 C   0  0  0  0  0  0  0  0  0  0  0  0
    2.0233    2.3720   -1.3277 C   0  0  0  0  0  0  0  0  0  0  0  0
    0.5550    2.0740   -1.5311 C   0  0  0  0  0  0  0  0  0  0  0  0
   -0.0458    2.3707   -2.9735 C   0  0  0  0  0  0  0  0  0  0  0  0
   -1.5378    2.0969   -2.8995 C   0  0  0  0  0  0  0  0  0  0  0  0
    0.0688    3.8089   -3.3375 C   0  0  0  0  0  0  0  0  0  0  0  0
    0.5998    1.5276   -4.0835 C   0  0  0  0  0  0  0  0  0  0  0  0
    0.0662    0.1273   -4.2625 O   0  0  0  0  0  0  0  0  0  0  0  0
   -0.3365   -0.4446   -5.5142 C   0  0  0  0  0  0  0  0  0  0  0  0
   -0.7884   -1.9018   -5.5577 C   0  0  0  0  0  0  0  0  0  0  0  0
   -1.2475   -2.3110   -4.2622 N   0  0  0  0  0  0  0  0  0  0  0  0
   -1.7301   -3.6161   -4.1281 N   0  0  0  0  0  0  0  0  0  0  0  0
   -1.1942   -4.4804   -3.2149 C   0  0  0  0  0  0  0  0  0  0  0  0
   -0.0486   -4.0145   -2.3667 C   0  0  0  0  0  0  0  0  0  0  0  0
   -0.1467   -4.4845   -1.0047 N   0  0  0  0  0  0  0  0  0  0  0  0
   -0.6034   -3.7215    0.0091 C   0  0  0  0  0  0  0  0  0  0  0  0
   -0.4554   -4.3064    1.3747 C   0  0  0  0  0  0  0  0  0  0  0  0
   -1.7682   -4.8772    2.0044 C   0  0  0  0  0  0  0  0  0  0  0  0
   -1.5015   -5.7355    3.1965 C   0  0  0  0  0  0  0  0  0  0  0  0
   -2.6824   -5.5165    1.0115 C   0  0  0  0  0  0  0  0  0  0  0  0
    0.1620   -3.2713    2.2064 N   0  0  0  0  0  0  0  0  0  0  0  0
    1.5314   -3.1253    2.1455 C   0  0  0  0  0  0  0  0  0  0  0  0
    2.3247   -2.0726    2.8751 C   0  0  0  0  0  0  0  0  0  0  0  0
    3.8385   -2.3299    2.8356 C   0  0  0  0  0  0  0  0  0  0  0  0
    4.5975   -1.2238    3.4683 C   0  0  0  0  0  0  0  0  0  0  0  0
    4.1794    0.0887    2.9513 N   0  0  0  0  0  0  0  0  0  0  0  0
    5.0589    1.0576    2.5731 C   0  0  0  0  0  0  0  0  0  0  0  0
    6.4030    0.7961    2.4026 C   0  0  0  0  0  0  0  0  0  0  0  0
    7.5439    0.7127    2.2344 C   0  0  0  0  0  0  0  0  0  0  0  0
    8.9138    0.4287    2.0221 C   0  0  0  0  0  0  0  0  0  0  0  0
    9.5927    1.5850    1.5115 N   0  0  0  0  0  0  0  0  0  0  0  0
    9.7334    2.7238    2.3357 C   0  0  0  0  0  0  0  0  0  0  0  0
    9.7315    1.7869    0.1166 C   0  0  0  0  0  0  0  0  0  0  0  0
    9.5415   -0.0203    3.3387 C   0  0  0  0  0  0  0  0  0  0  0  0
    9.0473   -0.7339    1.0637 C   0  0  0  0  0  0  0  0  0  0  0  0
    4.6432    2.2025    2.3385 O   0  0  0  0  0  0  0  0  0  0  0  0
    2.7770    0.3472    2.8531 C   0  0  0  0  0  0  0  0  0  0  0  0
    2.0610   -0.7473    2.1796 C   0  0  0  0  0  0  0  0  0  0  0  0
    2.1569   -3.9141    1.4125 O   0  0  0  0  0  0  0  0  0  0  0  0
   -0.7033   -2.3559    2.9711 C   0  0  0  0  0  0  0  0  0  0  0  0
   -0.9789   -2.5829   -0.1904 O   0  0  0  0  0  0  0  0  0  0  0  0
    1.3242   -4.5061   -2.9869 C   0  0  0  0  0  0  0  0  0  0  0  0
    2.5985   -4.0127   -2.2438 C   0  0  0  0  0  0  0  0  0  0  0  0
    2.8116   -2.5818   -2.6105 C   0  0  0  0  0  0  0  0  0  0  0  0
    4.0364   -2.0549   -2.0594 N   0  0  0  0  0  0  0  0  0  0  0  0
    5.2360   -2.8493   -2.3498 C   0  0  0  0  0  0  0  0  0  0  0  0
    4.9745   -4.3445   -2.0837 C   0  0  0  0  0  0  0  0  0  0  0  0
    3.7280   -4.7976   -2.7189 O   0  0  0  0  0  0  0  0  0  0  0  0
   -1.6056   -5.6449   -3.0926 O   0  0  0  0  0  0  0  0  0  0  0  0
   -2.8673   -3.9575   -4.9810 C   0  0  0  0  0  0  0  0  0  0  0  0
   -2.5079   -3.5823   -6.4386 C   0  0  0  0  0  0  0  0  0  0  0  0
   -1.9613   -2.1528   -6.5643 C   0  0  0  0  0  0  0  0  0  0  0  0
   -0.3407    0.1923   -6.5858 O   0  0  0  0  0  0  0  0  0  0  0  0
    3.0461    1.4199   -1.4251 C   0  0  0  0  0  0  0  0  0  0  0  0
    4.2512    2.0274   -1.0763 C   0  0  0  0  0  0  0  0  0  0  0  0
    5.4478    1.2464   -1.0757 C   0  0  0  0  0  0  0  0  0  0  0  0
    5.3329   -0.1076   -1.3946 C   0  0  0  0  0  0  0  0  0  0  0  0
    4.1116   -0.6948   -1.7353 C   0  0  0  0  0  0  0  0  0  0  0  0
    2.9410    0.0747   -1.7470 C   0  0  0  0  0  0  0  0  0  0  0  0
    1.9501   -2.0215    4.2007 F   0  0  0  0  0  0  0  0  0  0  0  0
  1  2  1  0  0  0  0
  2  3  1  0  0  0  0
  2  5  1  0  0  0  0
  3  4  1  0  0  0  0
  5  6  4  0  0  0  0
  5 10  4  0  0  0  0
  6  7  4  0  0  0  0
  7  8  4  0  0  0  0
  8  9  4  0  0  0  0
  9 10  4  0  0  0  0
 10 11  1  0  0  0  0
 11 12  4  0  0  0  0
 11 15  4  0  0  0  0
 12 13  1  0  0  0  0
 12 68  4  0  0  0  0
 13 14  1  0  0  0  0
 15 16  1  0  0  0  0
 15 67  4  0  0  0  0
 16 17  1  0  0  0  0
 17 18  1  0  0  0  0
 17 19  1  0  0  0  0
 17 20  1  0  0  0  0
 20 21  1  0  0  0  0
 21 22  1  0  0  0  0
 22 23  1  0  0  0  0
 22 66  2  0  0  0  0
 23 24  1  0  0  0  0
 23 65  1  0  0  0  0
 24 25  1  0  0  0  0
 25 26  1  0  0  0  0
 25 63  1  0  0  0  0
 26 27  1  0  0  0  0
 26 62  2  0  0  0  0
 27 28  1  0  0  0  0
 27 55  1  0  0  0  0
 28 29  1  0  0  0  0
 29 30  1  0  0  0  0
 29 54  2  0  0  0  0
 30 31  1  0  0  0  0
 30 34  1  0  0  0  0
 31 32  1  0  0  0  0
 31 33  1  0  0  0  0
 34 35  1  0  0  0  0
 34 53  1  0  0  0  0
 35 36  1  0  0  0  0
 35 52  2  0  0  0  0
 36 37  1  0  0  0  0
 36 51  1  0  0  0  0
 36 73  1  0  0  0  0
 37 38  1  0  0  0  0
 38 39  1  0  0  0  0
 39 40  1  0  0  0  0
 39 50  1  0  0  0  0
 40 41  1  0  0  0  0
 40 49  2  0  0  0  0
 41 42  1  0  0  0  0
 42 43  1  0  0  0  0
 43 44  1  0  0  0  0
 43 47  1  0  0  0  0
 43 48  1  0  0  0  0
 44 45  1  0  0  0  0
 44 46  1  0  0  0  0
 50 51  1  0  0  0  0
 55 56  1  0  0  0  0
 56 57  1  0  0  0  0
 56 61  1  0  0  0  0
 57 58  1  0  0  0  0
 58 59  1  0  0  0  0
 58 71  1  0  0  0  0
 59 60  1  0  0  0  0
 60 61  1  0  0  0  0
 63 64  1  0  0  0  0
 64 65  1  0  0  0  0
 67 68  4  0  0  0  0
 67 72  4  0  0  0  0
 68 69  4  0  0  0  0
 69 70  4  0  0  0  0
 70 71  4  0  0  0  0
 71 72  4  0  0  0  0
M  END
$$$$
