mol_ETKDG5_287
  PyMOL3.1          3D                             0

 73 79  0  0  0  0  0  0  0  0999 V2000
    4.1612   -3.0437   -0.9319 C   0  0  0  0  0  0  0  0  0  0  0  0
    3.2402   -2.9433   -2.0782 C   0  0  0  0  0  0  0  0  0  0  0  0
    3.7970   -2.3362   -3.2372 O   0  0  0  0  0  0  0  0  0  0  0  0
    3.8979   -0.9332   -3.2237 C   0  0  0  0  0  0  0  0  0  0  0  0
    2.6914   -4.2468   -2.4806 C   0  0  0  0  0  0  0  0  0  0  0  0
    3.3799   -4.9709   -3.3443 N   0  0  0  0  0  0  0  0  0  0  0  0
    2.9592   -6.1945   -3.7331 C   0  0  0  0  0  0  0  0  0  0  0  0
    1.7797   -6.7563   -3.2307 C   0  0  0  0  0  0  0  0  0  0  0  0
    1.0446   -6.0126   -2.3058 C   0  0  0  0  0  0  0  0  0  0  0  0
    1.5036   -4.7365   -1.9424 C   0  0  0  0  0  0  0  0  0  0  0  0
    0.7092   -3.9619   -1.0174 C   0  0  0  0  0  0  0  0  0  0  0  0
    0.6761   -4.1911    0.3169 N   0  0  0  0  0  0  0  0  0  0  0  0
    1.4488   -5.2200    1.0918 C   0  0  0  0  0  0  0  0  0  0  0  0
    0.6277   -6.3709    1.4897 C   0  0  0  0  0  0  0  0  0  0  0  0
   -0.0759   -2.8289   -1.3410 C   0  0  0  0  0  0  0  0  0  0  0  0
   -0.2483   -2.0969   -2.6414 C   0  0  0  0  0  0  0  0  0  0  0  0
   -1.3702   -2.6537   -3.6044 C   0  0  0  0  0  0  0  0  0  0  0  0
   -1.1081   -4.0593   -4.0885 C   0  0  0  0  0  0  0  0  0  0  0  0
   -1.3511   -1.8071   -4.8537 C   0  0  0  0  0  0  0  0  0  0  0  0
   -2.7199   -2.6162   -2.9548 C   0  0  0  0  0  0  0  0  0  0  0  0
   -3.4417   -1.2975   -3.0670 O   0  0  0  0  0  0  0  0  0  0  0  0
   -4.8323   -1.1795   -3.3266 C   0  0  0  0  0  0  0  0  0  0  0  0
   -5.4566    0.1959   -3.3557 C   0  0  0  0  0  0  0  0  0  0  0  0
   -4.4395    1.2113   -3.3291 N   0  0  0  0  0  0  0  0  0  0  0  0
   -4.8590    2.5347   -3.4033 N   0  0  0  0  0  0  0  0  0  0  0  0
   -4.4768    3.4536   -2.4699 C   0  0  0  0  0  0  0  0  0  0  0  0
   -3.5871    3.0159   -1.3417 C   0  0  0  0  0  0  0  0  0  0  0  0
   -2.6820    4.0763   -0.9500 N   0  0  0  0  0  0  0  0  0  0  0  0
   -1.3812    4.0924   -1.2774 C   0  0  0  0  0  0  0  0  0  0  0  0
   -0.5496    5.1686   -0.6483 C   0  0  0  0  0  0  0  0  0  0  0  0
   -0.2316    6.3857   -1.5493 C   0  0  0  0  0  0  0  0  0  0  0  0
   -0.0298    7.6472   -0.7893 C   0  0  0  0  0  0  0  0  0  0  0  0
   -1.0308    6.5147   -2.7824 C   0  0  0  0  0  0  0  0  0  0  0  0
    0.6691    4.5233   -0.1696 N   0  0  0  0  0  0  0  0  0  0  0  0
    0.6079    3.8487    1.0182 C   0  0  0  0  0  0  0  0  0  0  0  0
    1.7373    3.0439    1.6010 C   0  0  0  0  0  0  0  0  0  0  0  0
    1.7845    1.7481    0.8177 C   0  0  0  0  0  0  0  0  0  0  0  0
    2.8597    0.8477    1.3289 C   0  0  0  0  0  0  0  0  0  0  0  0
    2.5993    0.6149    2.7496 N   0  0  0  0  0  0  0  0  0  0  0  0
    2.4068   -0.6504    3.2186 C   0  0  0  0  0  0  0  0  0  0  0  0
    1.7818   -0.8523    4.4255 C   0  0  0  0  0  0  0  0  0  0  0  0
    1.3001   -1.1206    5.4330 C   0  0  0  0  0  0  0  0  0  0  0  0
    0.6739   -1.2753    6.6830 C   0  0  0  0  0  0  0  0  0  0  0  0
    1.2811   -2.2780    7.4866 N   0  0  0  0  0  0  0  0  0  0  0  0
    2.0219   -3.3068    6.9040 C   0  0  0  0  0  0  0  0  0  0  0  0
    0.9177   -2.4536    8.8295 C   0  0  0  0  0  0  0  0  0  0  0  0
   -0.7907   -1.6307    6.4549 C   0  0  0  0  0  0  0  0  0  0  0  0
    0.7136    0.0537    7.4072 C   0  0  0  0  0  0  0  0  0  0  0  0
    2.7331   -1.6328    2.5575 O   0  0  0  0  0  0  0  0  0  0  0  0
    2.5176    1.7804    3.5851 C   0  0  0  0  0  0  0  0  0  0  0  0
    1.5001    2.7283    3.0870 C   0  0  0  0  0  0  0  0  0  0  0  0
   -0.4775    3.8775    1.6387 O   0  0  0  0  0  0  0  0  0  0  0  0
    1.8673    4.5110   -1.0312 C   0  0  0  0  0  0  0  0  0  0  0  0
   -0.9105    3.1899   -1.9537 O   0  0  0  0  0  0  0  0  0  0  0  0
   -4.4673    2.6044   -0.0934 C   0  0  0  0  0  0  0  0  0  0  0  0
   -3.6531    2.0215    1.0865 C   0  0  0  0  0  0  0  0  0  0  0  0
   -3.3466    0.6076    0.7537 C   0  0  0  0  0  0  0  0  0  0  0  0
   -2.6657   -0.0654    1.8217 N   0  0  0  0  0  0  0  0  0  0  0  0
   -3.3126    0.0488    3.1408 C   0  0  0  0  0  0  0  0  0  0  0  0
   -3.7356    1.4996    3.4196 C   0  0  0  0  0  0  0  0  0  0  0  0
   -4.4671    2.0768    2.2816 O   0  0  0  0  0  0  0  0  0  0  0  0
   -4.8745    4.6313   -2.5140 O   0  0  0  0  0  0  0  0  0  0  0  0
   -5.6683    2.8789   -4.5707 C   0  0  0  0  0  0  0  0  0  0  0  0
   -6.8256    1.8629   -4.7036 C   0  0  0  0  0  0  0  0  0  0  0  0
   -6.3342    0.4176   -4.6172 C   0  0  0  0  0  0  0  0  0  0  0  0
   -5.6122   -2.1386   -3.5529 O   0  0  0  0  0  0  0  0  0  0  0  0
   -0.6233   -2.4324   -0.1087 C   0  0  0  0  0  0  0  0  0  0  0  0
   -0.1357   -3.2847    0.8733 C   0  0  0  0  0  0  0  0  0  0  0  0
   -0.5186   -3.0717    2.2375 C   0  0  0  0  0  0  0  0  0  0  0  0
   -1.3620   -1.9922    2.5060 C   0  0  0  0  0  0  0  0  0  0  0  0
   -1.8288   -1.1422    1.5098 C   0  0  0  0  0  0  0  0  0  0  0  0
   -1.4475   -1.3530    0.1724 C   0  0  0  0  0  0  0  0  0  0  0  0
    2.9357    3.7339    1.5480 F   0  0  0  0  0  0  0  0  0  0  0  0
  1  2  1  0  0  0  0
  2  3  1  0  0  0  0
  2  5  1  0  0  0  0
  3  4  1  0  0  0  0
  5  6  4  0  0  0  0
  5 10  4  0  0  0  0
  6  7  4  0  0  0  0
  7  8  4  0  0  0  0
  8  9  4  0  0  0  0
  9 10  4  0  0  0  0
 10 11  1  0  0  0  0
 11 12  4  0  0  0  0
 11 15  4  0  0  0  0
 12 13  1  0  0  0  0
 12 68  4  0  0  0  0
 13 14  1  0  0  0  0
 15 16  1  0  0  0  0
 15 67  4  0  0  0  0
 16 17  1  0  0  0  0
 17 18  1  0  0  0  0
 17 19  1  0  0  0  0
 17 20  1  0  0  0  0
 20 21  1  0  0  0  0
 21 22  1  0  0  0  0
 22 23  1  0  0  0  0
 22 66  2  0  0  0  0
 23 24  1  0  0  0  0
 23 65  1  0  0  0  0
 24 25  1  0  0  0  0
 25 26  1  0  0  0  0
 25 63  1  0  0  0  0
 26 27  1  0  0  0  0
 26 62  2  0  0  0  0
 27 28  1  0  0  0  0
 27 55  1  0  0  0  0
 28 29  1  0  0  0  0
 29 30  1  0  0  0  0
 29 54  2  0  0  0  0
 30 31  1  0  0  0  0
 30 34  1  0  0  0  0
 31 32  1  0  0  0  0
 31 33  1  0  0  0  0
 34 35  1  0  0  0  0
 34 53  1  0  0  0  0
 35 36  1  0  0  0  0
 35 52  2  0  0  0  0
 36 37  1  0  0  0  0
 36 51  1  0  0  0  0
 36 73  1  0  0  0  0
 37 38  1  0  0  0  0
 38 39  1  0  0  0  0
 39 40  1  0  0  0  0
 39 50  1  0  0  0  0
 40 41  1  0  0  0  0
 40 49  2  0  0  0  0
 41 42  1  0  0  0  0
 42 43  1  0  0  0  0
 43 44  1  0  0  0  0
 43 47  1  0  0  0  0
 43 48  1  0  0  0  0
 44 45  1  0  0  0  0
 44 46  1  0  0  0  0
 50 51  1  0  0  0  0
 55 56  1  0  0  0  0
 56 57  1  0  0  0  0
 56 61  1  0  0  0  0
 57 58  1  0  0  0  0
 58 59  1  0  0  0  0
 58 71  1  0  0  0  0
 59 60  1  0  0  0  0
 60 61  1  0  0  0  0
 63 64  1  0  0  0  0
 64 65  1  0  0  0  0
 67 68  4  0  0  0  0
 67 72  4  0  0  0  0
 68 69  4  0  0  0  0
 69 70  4  0  0  0  0
 70 71  4  0  0  0  0
 71 72  4  0  0  0  0
M  END
$$$$
