mol_ETKDG2_127
  PyMOL3.1          3D                             0

 73 79  0  0  0  0  0  0  0  0999 V2000
   -3.5181    3.5587    1.1214 C   0  0  0  0  0  0  0  0  0  0  0  0
   -2.9215    3.0789   -0.1471 C   0  0  0  0  0  0  0  0  0  0  0  0
   -3.8294    2.8778   -1.2040 O   0  0  0  0  0  0  0  0  0  0  0  0
   -4.7268    1.7962   -1.0824 C   0  0  0  0  0  0  0  0  0  0  0  0
   -1.8536    3.9718   -0.6339 C   0  0  0  0  0  0  0  0  0  0  0  0
   -2.2040    5.1387   -1.1524 N   0  0  0  0  0  0  0  0  0  0  0  0
   -1.2739    6.0388   -1.5374 C   0  0  0  0  0  0  0  0  0  0  0  0
    0.0967    5.7827   -1.4007 C   0  0  0  0  0  0  0  0  0  0  0  0
    0.4873    4.5572   -0.8399 C   0  0  0  0  0  0  0  0  0  0  0  0
   -0.5097    3.6340   -0.4888 C   0  0  0  0  0  0  0  0  0  0  0  0
   -0.1024    2.3378    0.0002 C   0  0  0  0  0  0  0  0  0  0  0  0
    0.2260    2.0752    1.2931 N   0  0  0  0  0  0  0  0  0  0  0  0
    0.2099    3.0313    2.4501 C   0  0  0  0  0  0  0  0  0  0  0  0
    1.5489    3.4226    2.8954 C   0  0  0  0  0  0  0  0  0  0  0  0
   -0.0649    1.1464   -0.7702 C   0  0  0  0  0  0  0  0  0  0  0  0
   -0.4571    0.8914   -2.2020 C   0  0  0  0  0  0  0  0  0  0  0  0
    0.7072    1.0728   -3.2680 C   0  0  0  0  0  0  0  0  0  0  0  0
    1.3244    2.4467   -3.2876 C   0  0  0  0  0  0  0  0  0  0  0  0
    0.0920    0.9249   -4.6367 C   0  0  0  0  0  0  0  0  0  0  0  0
    1.8092    0.0589   -3.0287 C   0  0  0  0  0  0  0  0  0  0  0  0
    1.5050   -1.2810   -3.6490 O   0  0  0  0  0  0  0  0  0  0  0  0
    2.3200   -1.9075   -4.6339 C   0  0  0  0  0  0  0  0  0  0  0  0
    1.9279   -3.2875   -5.1259 C   0  0  0  0  0  0  0  0  0  0  0  0
    0.5542   -3.5516   -4.8182 N   0  0  0  0  0  0  0  0  0  0  0  0
    0.0515   -4.7829   -5.2375 N   0  0  0  0  0  0  0  0  0  0  0  0
   -0.5288   -5.6502   -4.3525 C   0  0  0  0  0  0  0  0  0  0  0  0
   -0.6594   -5.2388   -2.9078 C   0  0  0  0  0  0  0  0  0  0  0  0
   -1.8913   -5.7145   -2.3263 N   0  0  0  0  0  0  0  0  0  0  0  0
   -2.9898   -4.9541   -2.2238 C   0  0  0  0  0  0  0  0  0  0  0  0
   -4.1199   -5.5364   -1.4385 C   0  0  0  0  0  0  0  0  0  0  0  0
   -5.2963   -6.1105   -2.2982 C   0  0  0  0  0  0  0  0  0  0  0  0
   -4.8654   -6.7503   -3.5591 C   0  0  0  0  0  0  0  0  0  0  0  0
   -6.2010   -6.9918   -1.4727 C   0  0  0  0  0  0  0  0  0  0  0  0
   -4.5732   -4.4802   -0.5314 N   0  0  0  0  0  0  0  0  0  0  0  0
   -3.9118   -4.3152    0.6639 C   0  0  0  0  0  0  0  0  0  0  0  0
   -4.2117   -3.2234    1.6562 C   0  0  0  0  0  0  0  0  0  0  0  0
   -3.5223   -1.9777    1.1502 C   0  0  0  0  0  0  0  0  0  0  0  0
   -3.8231   -0.8210    2.0279 C   0  0  0  0  0  0  0  0  0  0  0  0
   -3.4071   -1.1344    3.3939 N   0  0  0  0  0  0  0  0  0  0  0  0
   -2.5795   -0.2632    4.0385 C   0  0  0  0  0  0  0  0  0  0  0  0
   -1.8418   -0.6062    5.1560 C   0  0  0  0  0  0  0  0  0  0  0  0
   -1.1995   -0.6992    6.1186 C   0  0  0  0  0  0  0  0  0  0  0  0
   -0.4907   -0.9630    7.2876 C   0  0  0  0  0  0  0  0  0  0  0  0
   -0.8220   -0.0452    8.3317 N   0  0  0  0  0  0  0  0  0  0  0  0
   -0.0390    0.0673    9.4870 C   0  0  0  0  0  0  0  0  0  0  0  0
   -2.0539    0.6399    8.3336 C   0  0  0  0  0  0  0  0  0  0  0  0
    0.9958   -0.8910    6.9725 C   0  0  0  0  0  0  0  0  0  0  0  0
   -0.7987   -2.3877    7.7565 C   0  0  0  0  0  0  0  0  0  0  0  0
   -2.4354    0.8770    3.5895 O   0  0  0  0  0  0  0  0  0  0  0  0
   -3.9111   -2.3609    3.9671 C   0  0  0  0  0  0  0  0  0  0  0  0
   -3.7066   -3.5324    3.0768 C   0  0  0  0  0  0  0  0  0  0  0  0
   -2.9820   -5.1048    0.9258 O   0  0  0  0  0  0  0  0  0  0  0  0
   -5.6313   -3.5661   -0.9895 C   0  0  0  0  0  0  0  0  0  0  0  0
   -2.9904   -3.8104   -2.6392 O   0  0  0  0  0  0  0  0  0  0  0  0
    0.5534   -5.7864   -2.0473 C   0  0  0  0  0  0  0  0  0  0  0  0
    0.5443   -5.3128   -0.5554 C   0  0  0  0  0  0  0  0  0  0  0  0
    1.0105   -3.8977   -0.5341 C   0  0  0  0  0  0  0  0  0  0  0  0
    1.1175   -3.3703    0.8101 N   0  0  0  0  0  0  0  0  0  0  0  0
    1.9007   -4.1978    1.7364 C   0  0  0  0  0  0  0  0  0  0  0  0
    1.5122   -5.6827    1.6096 C   0  0  0  0  0  0  0  0  0  0  0  0
    1.4711   -6.1313    0.2057 O   0  0  0  0  0  0  0  0  0  0  0  0
   -0.9308   -6.7675   -4.7072 O   0  0  0  0  0  0  0  0  0  0  0  0
    0.1356   -5.0422   -6.6758 C   0  0  0  0  0  0  0  0  0  0  0  0
    1.5823   -4.7873   -7.1498 C   0  0  0  0  0  0  0  0  0  0  0  0
    2.1231   -3.4429   -6.6628 C   0  0  0  0  0  0  0  0  0  0  0  0
    3.3543   -1.4066   -5.1227 O   0  0  0  0  0  0  0  0  0  0  0  0
    0.3594    0.1673    0.1469 C   0  0  0  0  0  0  0  0  0  0  0  0
    0.5162    0.7688    1.3912 C   0  0  0  0  0  0  0  0  0  0  0  0
    0.9025   -0.0422    2.5114 C   0  0  0  0  0  0  0  0  0  0  0  0
    1.0844   -1.4175    2.2864 C   0  0  0  0  0  0  0  0  0  0  0  0
    0.9248   -1.9945    1.0180 C   0  0  0  0  0  0  0  0  0  0  0  0
    0.5426   -1.1935   -0.0660 C   0  0  0  0  0  0  0  0  0  0  0  0
   -5.5713   -3.0377    1.7889 F   0  0  0  0  0  0  0  0  0  0  0  0
  1  2  1  0  0  0  0
  2  3  1  0  0  0  0
  2  5  1  0  0  0  0
  3  4  1  0  0  0  0
  5  6  4  0  0  0  0
  5 10  4  0  0  0  0
  6  7  4  0  0  0  0
  7  8  4  0  0  0  0
  8  9  4  0  0  0  0
  9 10  4  0  0  0  0
 10 11  1  0  0  0  0
 11 12  4  0  0  0  0
 11 15  4  0  0  0  0
 12 13  1  0  0  0  0
 12 68  4  0  0  0  0
 13 14  1  0  0  0  0
 15 16  1  0  0  0  0
 15 67  4  0  0  0  0
 16 17  1  0  0  0  0
 17 18  1  0  0  0  0
 17 19  1  0  0  0  0
 17 20  1  0  0  0  0
 20 21  1  0  0  0  0
 21 22  1  0  0  0  0
 22 23  1  0  0  0  0
 22 66  2  0  0  0  0
 23 24  1  0  0  0  0
 23 65  1  0  0  0  0
 24 25  1  0  0  0  0
 25 26  1  0  0  0  0
 25 63  1  0  0  0  0
 26 27  1  0  0  0  0
 26 62  2  0  0  0  0
 27 28  1  0  0  0  0
 27 55  1  0  0  0  0
 28 29  1  0  0  0  0
 29 30  1  0  0  0  0
 29 54  2  0  0  0  0
 30 31  1  0  0  0  0
 30 34  1  0  0  0  0
 31 32  1  0  0  0  0
 31 33  1  0  0  0  0
 34 35  1  0  0  0  0
 34 53  1  0  0  0  0
 35 36  1  0  0  0  0
 35 52  2  0  0  0  0
 36 37  1  0  0  0  0
 36 51  1  0  0  0  0
 36 73  1  0  0  0  0
 37 38  1  0  0  0  0
 38 39  1  0  0  0  0
 39 40  1  0  0  0  0
 39 50  1  0  0  0  0
 40 41  1  0  0  0  0
 40 49  2  0  0  0  0
 41 42  1  0  0  0  0
 42 43  1  0  0  0  0
 43 44  1  0  0  0  0
 43 47  1  0  0  0  0
 43 48  1  0  0  0  0
 44 45  1  0  0  0  0
 44 46  1  0  0  0  0
 50 51  1  0  0  0  0
 55 56  1  0  0  0  0
 56 57  1  0  0  0  0
 56 61  1  0  0  0  0
 57 58  1  0  0  0  0
 58 59  1  0  0  0  0
 58 71  1  0  0  0  0
 59 60  1  0  0  0  0
 60 61  1  0  0  0  0
 63 64  1  0  0  0  0
 64 65  1  0  0  0  0
 67 68  4  0  0  0  0
 67 72  4  0  0  0  0
 68 69  4  0  0  0  0
 69 70  4  0  0  0  0
 70 71  4  0  0  0  0
 71 72  4  0  0  0  0
M  END
$$$$
