mol_ETKDG3_191
  PyMOL3.1          3D                             0

 73 79  0  0  0  0  0  0  0  0999 V2000
    4.1123    2.0795    2.9294 C   0  0  0  0  0  0  0  0  0  0  0  0
    3.2034    0.9162    2.9994 C   0  0  0  0  0  0  0  0  0  0  0  0
    3.7929   -0.3364    2.7386 O   0  0  0  0  0  0  0  0  0  0  0  0
    4.2615   -0.5919    1.4366 C   0  0  0  0  0  0  0  0  0  0  0  0
    2.5401    0.8001    4.3140 C   0  0  0  0  0  0  0  0  0  0  0  0
    3.2864    0.4266    5.3388 N   0  0  0  0  0  0  0  0  0  0  0  0
    2.7758    0.3350    6.5799 C   0  0  0  0  0  0  0  0  0  0  0  0
    1.4403    0.6457    6.8465 C   0  0  0  0  0  0  0  0  0  0  0  0
    0.6367    1.0556    5.7806 C   0  0  0  0  0  0  0  0  0  0  0  0
    1.1916    1.1075    4.4988 C   0  0  0  0  0  0  0  0  0  0  0  0
    0.3311    1.4680    3.4014 C   0  0  0  0  0  0  0  0  0  0  0  0
    0.0445    2.7484    3.0613 N   0  0  0  0  0  0  0  0  0  0  0  0
    0.5496    4.0132    3.7010 C   0  0  0  0  0  0  0  0  0  0  0  0
   -0.4403    4.6227    4.6008 C   0  0  0  0  0  0  0  0  0  0  0  0
   -0.2718    0.5577    2.4964 C   0  0  0  0  0  0  0  0  0  0  0  0
   -0.1989   -0.9460    2.3979 C   0  0  0  0  0  0  0  0  0  0  0  0
   -1.3181   -1.7357    3.2181 C   0  0  0  0  0  0  0  0  0  0  0  0
   -1.1906   -3.1910    2.8428 C   0  0  0  0  0  0  0  0  0  0  0  0
   -1.0487   -1.6975    4.6909 C   0  0  0  0  0  0  0  0  0  0  0  0
   -2.7453   -1.2383    2.9490 C   0  0  0  0  0  0  0  0  0  0  0  0
   -3.5331   -1.9651    1.8794 O   0  0  0  0  0  0  0  0  0  0  0  0
   -4.8520   -2.4993    2.0631 C   0  0  0  0  0  0  0  0  0  0  0  0
   -5.5388   -3.1795    0.8795 C   0  0  0  0  0  0  0  0  0  0  0  0
   -4.5568   -3.6413   -0.0543 N   0  0  0  0  0  0  0  0  0  0  0  0
   -5.0198   -4.2856   -1.1996 N   0  0  0  0  0  0  0  0  0  0  0  0
   -4.6925   -3.8365   -2.4457 C   0  0  0  0  0  0  0  0  0  0  0  0
   -3.8176   -2.6317   -2.5584 C   0  0  0  0  0  0  0  0  0  0  0  0
   -2.8084   -2.7811   -3.5862 N   0  0  0  0  0  0  0  0  0  0  0  0
   -1.5770   -3.2368   -3.3291 C   0  0  0  0  0  0  0  0  0  0  0  0
   -0.6021   -3.1416   -4.4517 C   0  0  0  0  0  0  0  0  0  0  0  0
   -0.2345   -4.5444   -5.0540 C   0  0  0  0  0  0  0  0  0  0  0  0
    0.6913   -4.4550   -6.2201 C   0  0  0  0  0  0  0  0  0  0  0  0
   -1.4652   -5.3592   -5.3709 C   0  0  0  0  0  0  0  0  0  0  0  0
    0.5373   -2.3896   -3.9172 N   0  0  0  0  0  0  0  0  0  0  0  0
    0.4855   -1.0056   -3.9614 C   0  0  0  0  0  0  0  0  0  0  0  0
    1.4988   -0.0752   -3.3438 C   0  0  0  0  0  0  0  0  0  0  0  0
    1.4087    1.3545   -3.8892 C   0  0  0  0  0  0  0  0  0  0  0  0
    2.3052    2.2933   -3.1438 C   0  0  0  0  0  0  0  0  0  0  0  0
    2.1131    2.1734   -1.6857 N   0  0  0  0  0  0  0  0  0  0  0  0
    1.9146    3.2333   -0.8432 C   0  0  0  0  0  0  0  0  0  0  0  0
    1.3945    4.4526   -1.2528 C   0  0  0  0  0  0  0  0  0  0  0  0
    1.0064    5.5320   -1.4549 C   0  0  0  0  0  0  0  0  0  0  0  0
    0.5297    6.8000   -1.8431 C   0  0  0  0  0  0  0  0  0  0  0  0
    1.5932    7.7517   -1.7475 N   0  0  0  0  0  0  0  0  0  0  0  0
    1.8378    8.4155   -0.5259 C   0  0  0  0  0  0  0  0  0  0  0  0
    2.6536    7.7083   -2.6839 C   0  0  0  0  0  0  0  0  0  0  0  0
   -0.6340    7.2048   -0.9533 C   0  0  0  0  0  0  0  0  0  0  0  0
   -0.0127    6.7500   -3.2537 C   0  0  0  0  0  0  0  0  0  0  0  0
    2.1591    3.0989    0.3669 O   0  0  0  0  0  0  0  0  0  0  0  0
    2.1434    0.8521   -1.1403 C   0  0  0  0  0  0  0  0  0  0  0  0
    1.1966   -0.0414   -1.8523 C   0  0  0  0  0  0  0  0  0  0  0  0
   -0.5010   -0.4857   -4.5163 O   0  0  0  0  0  0  0  0  0  0  0  0
    1.6166   -3.1237   -3.2366 C   0  0  0  0  0  0  0  0  0  0  0  0
   -1.2689   -3.5718   -2.2059 O   0  0  0  0  0  0  0  0  0  0  0  0
   -4.6738   -1.3460   -2.8450 C   0  0  0  0  0  0  0  0  0  0  0  0
   -3.8598   -0.0260   -2.8934 C   0  0  0  0  0  0  0  0  0  0  0  0
   -3.6200    0.4151   -1.4875 C   0  0  0  0  0  0  0  0  0  0  0  0
   -2.9822    1.7063   -1.4317 N   0  0  0  0  0  0  0  0  0  0  0  0
   -3.6360    2.7600   -2.2323 C   0  0  0  0  0  0  0  0  0  0  0  0
   -3.9685    2.2479   -3.6377 C   0  0  0  0  0  0  0  0  0  0  0  0
   -4.6669    0.9574   -3.5858 O   0  0  0  0  0  0  0  0  0  0  0  0
   -5.1339   -4.3742   -3.4809 O   0  0  0  0  0  0  0  0  0  0  0  0
   -5.8013   -5.4969   -0.9618 C   0  0  0  0  0  0  0  0  0  0  0  0
   -6.9240   -5.1608    0.0399 C   0  0  0  0  0  0  0  0  0  0  0  0
   -6.4083   -4.4144    1.2802 C   0  0  0  0  0  0  0  0  0  0  0  0
   -5.4728   -2.4441    3.1406 O   0  0  0  0  0  0  0  0  0  0  0  0
   -0.9615    1.3893    1.6099 C   0  0  0  0  0  0  0  0  0  0  0  0
   -0.7521    2.7137    1.9908 C   0  0  0  0  0  0  0  0  0  0  0  0
   -1.3396    3.7619    1.2170 C   0  0  0  0  0  0  0  0  0  0  0  0
   -2.0736    3.3828    0.0844 C   0  0  0  0  0  0  0  0  0  0  0  0
   -2.2554    2.0475   -0.2850 C   0  0  0  0  0  0  0  0  0  0  0  0
   -1.6879    1.0268    0.4848 C   0  0  0  0  0  0  0  0  0  0  0  0
    2.7880   -0.5192   -3.5743 F   0  0  0  0  0  0  0  0  0  0  0  0
  1  2  1  0  0  0  0
  2  3  1  0  0  0  0
  2  5  1  0  0  0  0
  3  4  1  0  0  0  0
  5  6  4  0  0  0  0
  5 10  4  0  0  0  0
  6  7  4  0  0  0  0
  7  8  4  0  0  0  0
  8  9  4  0  0  0  0
  9 10  4  0  0  0  0
 10 11  1  0  0  0  0
 11 12  4  0  0  0  0
 11 15  4  0  0  0  0
 12 13  1  0  0  0  0
 12 68  4  0  0  0  0
 13 14  1  0  0  0  0
 15 16  1  0  0  0  0
 15 67  4  0  0  0  0
 16 17  1  0  0  0  0
 17 18  1  0  0  0  0
 17 19  1  0  0  0  0
 17 20  1  0  0  0  0
 20 21  1  0  0  0  0
 21 22  1  0  0  0  0
 22 23  1  0  0  0  0
 22 66  2  0  0  0  0
 23 24  1  0  0  0  0
 23 65  1  0  0  0  0
 24 25  1  0  0  0  0
 25 26  1  0  0  0  0
 25 63  1  0  0  0  0
 26 27  1  0  0  0  0
 26 62  2  0  0  0  0
 27 28  1  0  0  0  0
 27 55  1  0  0  0  0
 28 29  1  0  0  0  0
 29 30  1  0  0  0  0
 29 54  2  0  0  0  0
 30 31  1  0  0  0  0
 30 34  1  0  0  0  0
 31 32  1  0  0  0  0
 31 33  1  0  0  0  0
 34 35  1  0  0  0  0
 34 53  1  0  0  0  0
 35 36  1  0  0  0  0
 35 52  2  0  0  0  0
 36 37  1  0  0  0  0
 36 51  1  0  0  0  0
 36 73  1  0  0  0  0
 37 38  1  0  0  0  0
 38 39  1  0  0  0  0
 39 40  1  0  0  0  0
 39 50  1  0  0  0  0
 40 41  1  0  0  0  0
 40 49  2  0  0  0  0
 41 42  1  0  0  0  0
 42 43  1  0  0  0  0
 43 44  1  0  0  0  0
 43 47  1  0  0  0  0
 43 48  1  0  0  0  0
 44 45  1  0  0  0  0
 44 46  1  0  0  0  0
 50 51  1  0  0  0  0
 55 56  1  0  0  0  0
 56 57  1  0  0  0  0
 56 61  1  0  0  0  0
 57 58  1  0  0  0  0
 58 59  1  0  0  0  0
 58 71  1  0  0  0  0
 59 60  1  0  0  0  0
 60 61  1  0  0  0  0
 63 64  1  0  0  0  0
 64 65  1  0  0  0  0
 67 68  4  0  0  0  0
 67 72  4  0  0  0  0
 68 69  4  0  0  0  0
 69 70  4  0  0  0  0
 70 71  4  0  0  0  0
 71 72  4  0  0  0  0
M  END
$$$$
