mol_ETKDG3_178
  PyMOL3.1          3D                             0

 73 79  0  0  0  0  0  0  0  0999 V2000
   -2.9948   -5.7601   -2.3321 C   0  0  0  0  0  0  0  0  0  0  0  0
   -2.7991   -5.6854   -0.8654 C   0  0  0  0  0  0  0  0  0  0  0  0
   -3.9940   -5.5668   -0.1029 O   0  0  0  0  0  0  0  0  0  0  0  0
   -4.6216   -4.3076   -0.0890 C   0  0  0  0  0  0  0  0  0  0  0  0
   -2.0633   -6.8492   -0.3304 C   0  0  0  0  0  0  0  0  0  0  0  0
   -2.7178   -7.9919   -0.2147 N   0  0  0  0  0  0  0  0  0  0  0  0
   -2.1046   -9.1132    0.2183 C   0  0  0  0  0  0  0  0  0  0  0  0
   -0.7488   -9.1227    0.5529 C   0  0  0  0  0  0  0  0  0  0  0  0
   -0.0322   -7.9276    0.4346 C   0  0  0  0  0  0  0  0  0  0  0  0
   -0.7165   -6.7777    0.0070 C   0  0  0  0  0  0  0  0  0  0  0  0
    0.0340   -5.5543   -0.0538 C   0  0  0  0  0  0  0  0  0  0  0  0
    0.8836   -5.2547   -1.0685 N   0  0  0  0  0  0  0  0  0  0  0  0
    1.1440   -6.0456   -2.3216 C   0  0  0  0  0  0  0  0  0  0  0  0
    2.4690   -6.6642   -2.3752 C   0  0  0  0  0  0  0  0  0  0  0  0
   -0.0437   -4.4875    0.8798 C   0  0  0  0  0  0  0  0  0  0  0  0
   -0.9327   -4.2499    2.0717 C   0  0  0  0  0  0  0  0  0  0  0  0
   -0.5368   -4.9066    3.4561 C   0  0  0  0  0  0  0  0  0  0  0  0
   -0.7382   -6.4114    3.4661 C   0  0  0  0  0  0  0  0  0  0  0  0
   -1.5035   -4.3955    4.4877 C   0  0  0  0  0  0  0  0  0  0  0  0
    0.8898   -4.5959    3.8985 C   0  0  0  0  0  0  0  0  0  0  0  0
    1.0523   -3.3496    4.7185 O   0  0  0  0  0  0  0  0  0  0  0  0
    2.0001   -3.1777    5.7678 C   0  0  0  0  0  0  0  0  0  0  0  0
    2.0534   -1.8218    6.4682 C   0  0  0  0  0  0  0  0  0  0  0  0
    0.8695   -1.0865    6.1456 N   0  0  0  0  0  0  0  0  0  0  0  0
    0.7061    0.1627    6.7244 N   0  0  0  0  0  0  0  0  0  0  0  0
    0.5130    1.2723    5.9479 C   0  0  0  0  0  0  0  0  0  0  0  0
    0.5199    1.1091    4.4498 C   0  0  0  0  0  0  0  0  0  0  0  0
   -0.4848    1.9224    3.7994 N   0  0  0  0  0  0  0  0  0  0  0  0
   -1.6686    1.4562    3.3671 C   0  0  0  0  0  0  0  0  0  0  0  0
   -2.4739    2.4149    2.5513 C   0  0  0  0  0  0  0  0  0  0  0  0
   -3.6689    3.0374    3.3548 C   0  0  0  0  0  0  0  0  0  0  0  0
   -3.2231    3.6320    4.6490 C   0  0  0  0  0  0  0  0  0  0  0  0
   -4.4654    4.0110    2.5399 C   0  0  0  0  0  0  0  0  0  0  0  0
   -2.8705    1.6900    1.3332 N   0  0  0  0  0  0  0  0  0  0  0  0
   -1.9797    1.6315    0.2695 C   0  0  0  0  0  0  0  0  0  0  0  0
   -2.2124    0.8500   -1.0086 C   0  0  0  0  0  0  0  0  0  0  0  0
   -2.0091   -0.6202   -0.6969 C   0  0  0  0  0  0  0  0  0  0  0  0
   -2.2376   -1.4826   -1.9128 C   0  0  0  0  0  0  0  0  0  0  0  0
   -1.3422   -1.0267   -2.9862 N   0  0  0  0  0  0  0  0  0  0  0  0
   -0.4847   -1.8984   -3.6256 C   0  0  0  0  0  0  0  0  0  0  0  0
    0.6390   -1.4100   -4.2790 C   0  0  0  0  0  0  0  0  0  0  0  0
    1.5892   -1.0857   -4.8833 C   0  0  0  0  0  0  0  0  0  0  0  0
    2.6924   -0.5097   -5.5473 C   0  0  0  0  0  0  0  0  0  0  0  0
    2.9861   -1.2281   -6.7419 N   0  0  0  0  0  0  0  0  0  0  0  0
    4.1737   -1.9512   -6.9100 C   0  0  0  0  0  0  0  0  0  0  0  0
    2.0776   -1.2039   -7.8241 C   0  0  0  0  0  0  0  0  0  0  0  0
    2.3979    0.9458   -5.9052 C   0  0  0  0  0  0  0  0  0  0  0  0
    3.8830   -0.4714   -4.6132 C   0  0  0  0  0  0  0  0  0  0  0  0
   -0.6662   -3.1138   -3.5903 O   0  0  0  0  0  0  0  0  0  0  0  0
   -1.3871    0.3715   -3.3131 C   0  0  0  0  0  0  0  0  0  0  0  0
   -1.2257    1.2414   -2.1268 C   0  0  0  0  0  0  0  0  0  0  0  0
   -0.9017    2.2477    0.3928 O   0  0  0  0  0  0  0  0  0  0  0  0
   -4.1292    0.9355    1.3372 C   0  0  0  0  0  0  0  0  0  0  0  0
   -1.9796    0.2914    3.5228 O   0  0  0  0  0  0  0  0  0  0  0  0
    1.9367    1.5320    3.8854 C   0  0  0  0  0  0  0  0  0  0  0  0
    2.0743    1.4045    2.3456 C   0  0  0  0  0  0  0  0  0  0  0  0
    2.2838   -0.0289    2.0514 C   0  0  0  0  0  0  0  0  0  0  0  0
    2.4679   -0.2616    0.6456 N   0  0  0  0  0  0  0  0  0  0  0  0
    3.5584    0.5375    0.0389 C   0  0  0  0  0  0  0  0  0  0  0  0
    3.4076    2.0174    0.4417 C   0  0  0  0  0  0  0  0  0  0  0  0
    3.2329    2.1632    1.9015 O   0  0  0  0  0  0  0  0  0  0  0  0
    0.3874    2.4064    6.4428 O   0  0  0  0  0  0  0  0  0  0  0  0
    0.7044    0.1820    8.1902 C   0  0  0  0  0  0  0  0  0  0  0  0
    1.9604   -0.5630    8.6964 C   0  0  0  0  0  0  0  0  0  0  0  0
    2.1457   -1.9343    8.0234 C   0  0  0  0  0  0  0  0  0  0  0  0
    2.7785   -4.0624    6.1515 O   0  0  0  0  0  0  0  0  0  0  0  0
    0.8766   -3.5552    0.3753 C   0  0  0  0  0  0  0  0  0  0  0  0
    1.4141   -4.0557   -0.8111 C   0  0  0  0  0  0  0  0  0  0  0  0
    2.3648   -3.2680   -1.5409 C   0  0  0  0  0  0  0  0  0  0  0  0
    2.6837   -2.0115   -1.0268 C   0  0  0  0  0  0  0  0  0  0  0  0
    2.1313   -1.5303    0.1580 C   0  0  0  0  0  0  0  0  0  0  0  0
    1.2047   -2.3090    0.8753 C   0  0  0  0  0  0  0  0  0  0  0  0
   -3.4760    1.1037   -1.5093 F   0  0  0  0  0  0  0  0  0  0  0  0
  1  2  1  0  0  0  0
  2  3  1  0  0  0  0
  2  5  1  0  0  0  0
  3  4  1  0  0  0  0
  5  6  4  0  0  0  0
  5 10  4  0  0  0  0
  6  7  4  0  0  0  0
  7  8  4  0  0  0  0
  8  9  4  0  0  0  0
  9 10  4  0  0  0  0
 10 11  1  0  0  0  0
 11 12  4  0  0  0  0
 11 15  4  0  0  0  0
 12 13  1  0  0  0  0
 12 68  4  0  0  0  0
 13 14  1  0  0  0  0
 15 16  1  0  0  0  0
 15 67  4  0  0  0  0
 16 17  1  0  0  0  0
 17 18  1  0  0  0  0
 17 19  1  0  0  0  0
 17 20  1  0  0  0  0
 20 21  1  0  0  0  0
 21 22  1  0  0  0  0
 22 23  1  0  0  0  0
 22 66  2  0  0  0  0
 23 24  1  0  0  0  0
 23 65  1  0  0  0  0
 24 25  1  0  0  0  0
 25 26  1  0  0  0  0
 25 63  1  0  0  0  0
 26 27  1  0  0  0  0
 26 62  2  0  0  0  0
 27 28  1  0  0  0  0
 27 55  1  0  0  0  0
 28 29  1  0  0  0  0
 29 30  1  0  0  0  0
 29 54  2  0  0  0  0
 30 31  1  0  0  0  0
 30 34  1  0  0  0  0
 31 32  1  0  0  0  0
 31 33  1  0  0  0  0
 34 35  1  0  0  0  0
 34 53  1  0  0  0  0
 35 36  1  0  0  0  0
 35 52  2  0  0  0  0
 36 37  1  0  0  0  0
 36 51  1  0  0  0  0
 36 73  1  0  0  0  0
 37 38  1  0  0  0  0
 38 39  1  0  0  0  0
 39 40  1  0  0  0  0
 39 50  1  0  0  0  0
 40 41  1  0  0  0  0
 40 49  2  0  0  0  0
 41 42  1  0  0  0  0
 42 43  1  0  0  0  0
 43 44  1  0  0  0  0
 43 47  1  0  0  0  0
 43 48  1  0  0  0  0
 44 45  1  0  0  0  0
 44 46  1  0  0  0  0
 50 51  1  0  0  0  0
 55 56  1  0  0  0  0
 56 57  1  0  0  0  0
 56 61  1  0  0  0  0
 57 58  1  0  0  0  0
 58 59  1  0  0  0  0
 58 71  1  0  0  0  0
 59 60  1  0  0  0  0
 60 61  1  0  0  0  0
 63 64  1  0  0  0  0
 64 65  1  0  0  0  0
 67 68  4  0  0  0  0
 67 72  4  0  0  0  0
 68 69  4  0  0  0  0
 69 70  4  0  0  0  0
 70 71  4  0  0  0  0
 71 72  4  0  0  0  0
M  END
$$$$
