mol_ETKDG3_181
  PyMOL3.1          3D                             0

 73 79  0  0  0  0  0  0  0  0999 V2000
    1.5137    0.0474    6.0256 C   0  0  0  0  0  0  0  0  0  0  0  0
    0.8599   -0.5866    4.8563 C   0  0  0  0  0  0  0  0  0  0  0  0
    1.5872   -1.6454    4.2595 O   0  0  0  0  0  0  0  0  0  0  0  0
    2.6809   -1.2804    3.4455 C   0  0  0  0  0  0  0  0  0  0  0  0
   -0.4725   -1.1293    5.1821 C   0  0  0  0  0  0  0  0  0  0  0  0
   -0.5389   -2.1636    6.0056 N   0  0  0  0  0  0  0  0  0  0  0  0
   -1.7309   -2.6738    6.3958 C   0  0  0  0  0  0  0  0  0  0  0  0
   -2.9421   -2.1208    5.9622 C   0  0  0  0  0  0  0  0  0  0  0  0
   -2.8914   -1.0138    5.1000 C   0  0  0  0  0  0  0  0  0  0  0  0
   -1.6338   -0.5435    4.6904 C   0  0  0  0  0  0  0  0  0  0  0  0
   -1.5847    0.5462    3.7461 C   0  0  0  0  0  0  0  0  0  0  0  0
   -1.6257    1.8491    4.1083 N   0  0  0  0  0  0  0  0  0  0  0  0
   -1.6877    2.4158    5.5027 C   0  0  0  0  0  0  0  0  0  0  0  0
   -2.9668    3.0447    5.8248 C   0  0  0  0  0  0  0  0  0  0  0  0
   -1.4025    0.4220    2.3418 C   0  0  0  0  0  0  0  0  0  0  0  0
   -1.1475   -0.7924    1.4788 C   0  0  0  0  0  0  0  0  0  0  0  0
   -2.4317   -1.5402    0.9155 C   0  0  0  0  0  0  0  0  0  0  0  0
   -3.2594   -2.2087    1.9943 C   0  0  0  0  0  0  0  0  0  0  0  0
   -1.9639   -2.6831    0.0520 C   0  0  0  0  0  0  0  0  0  0  0  0
   -3.3093   -0.5989    0.1133 C   0  0  0  0  0  0  0  0  0  0  0  0
   -2.8795   -0.4692   -1.3383 O   0  0  0  0  0  0  0  0  0  0  0  0
   -3.7665   -0.5471   -2.4460 C   0  0  0  0  0  0  0  0  0  0  0  0
   -3.2021   -0.4003   -3.8476 C   0  0  0  0  0  0  0  0  0  0  0  0
   -1.7691   -0.5309   -3.8301 N   0  0  0  0  0  0  0  0  0  0  0  0
   -1.1112   -0.4506   -5.0592 N   0  0  0  0  0  0  0  0  0  0  0  0
   -0.1063    0.4503   -5.2693 C   0  0  0  0  0  0  0  0  0  0  0  0
    0.2831    1.3644   -4.1413 C   0  0  0  0  0  0  0  0  0  0  0  0
    1.7115    1.6105   -4.1074 N   0  0  0  0  0  0  0  0  0  0  0  0
    2.5413    1.0480   -3.2101 C   0  0  0  0  0  0  0  0  0  0  0  0
    3.9501    1.5483   -3.2183 C   0  0  0  0  0  0  0  0  0  0  0  0
    4.9685    0.6152   -3.9438 C   0  0  0  0  0  0  0  0  0  0  0  0
    6.2517    1.3070   -4.2744 C   0  0  0  0  0  0  0  0  0  0  0  0
    4.3972   -0.1468   -5.0933 C   0  0  0  0  0  0  0  0  0  0  0  0
    4.3200    1.7765   -1.8147 N   0  0  0  0  0  0  0  0  0  0  0  0
    3.9206    2.9601   -1.2044 C   0  0  0  0  0  0  0  0  0  0  0  0
    4.1462    3.2901    0.2575 C   0  0  0  0  0  0  0  0  0  0  0  0
    3.8011    4.7502    0.6190 C   0  0  0  0  0  0  0  0  0  0  0  0
    3.8970    4.9910    2.1059 C   0  0  0  0  0  0  0  0  0  0  0  0
    3.1260    3.9659    2.8401 N   0  0  0  0  0  0  0  0  0  0  0  0
    2.1722    4.2302    3.7882 C   0  0  0  0  0  0  0  0  0  0  0  0
    1.7470    5.5109    4.1076 C   0  0  0  0  0  0  0  0  0  0  0  0
    1.3036    6.5271    4.4918 C   0  0  0  0  0  0  0  0  0  0  0  0
    0.8315    7.8142    4.8189 C   0  0  0  0  0  0  0  0  0  0  0  0
   -0.5120    7.9836    4.4033 N   0  0  0  0  0  0  0  0  0  0  0  0
   -1.5465    7.3161    5.0850 C   0  0  0  0  0  0  0  0  0  0  0  0
   -0.8774    8.8036    3.3310 C   0  0  0  0  0  0  0  0  0  0  0  0
    1.7448    8.8400    4.1814 C   0  0  0  0  0  0  0  0  0  0  0  0
    0.9119    8.0542    6.3275 C   0  0  0  0  0  0  0  0  0  0  0  0
    1.6343    3.2806    4.4011 O   0  0  0  0  0  0  0  0  0  0  0  0
    3.3938    2.6012    2.5096 C   0  0  0  0  0  0  0  0  0  0  0  0
    3.2191    2.3781    1.0505 C   0  0  0  0  0  0  0  0  0  0  0  0
    3.3166    3.7958   -1.9094 O   0  0  0  0  0  0  0  0  0  0  0  0
    4.9924    0.6914   -1.0675 C   0  0  0  0  0  0  0  0  0  0  0  0
    2.1117    0.2740   -2.3666 O   0  0  0  0  0  0  0  0  0  0  0  0
   -0.4658    2.7447   -4.3087 C   0  0  0  0  0  0  0  0  0  0  0  0
   -0.2527    3.7333   -3.1306 C   0  0  0  0  0  0  0  0  0  0  0  0
   -1.0959    3.2403   -2.0021 C   0  0  0  0  0  0  0  0  0  0  0  0
   -1.0728    4.1437   -0.8794 N   0  0  0  0  0  0  0  0  0  0  0  0
   -1.3800    5.5485   -1.1979 C   0  0  0  0  0  0  0  0  0  0  0  0
   -0.6012    6.0090   -2.4448 C   0  0  0  0  0  0  0  0  0  0  0  0
   -0.7265    5.0429   -3.5497 O   0  0  0  0  0  0  0  0  0  0  0  0
    0.4650    0.5488   -6.3681 O   0  0  0  0  0  0  0  0  0  0  0  0
   -1.5321   -1.4274   -6.0664 C   0  0  0  0  0  0  0  0  0  0  0  0
   -3.0766   -1.3939   -6.1951 C   0  0  0  0  0  0  0  0  0  0  0  0
   -3.7709   -1.4760   -4.8296 C   0  0  0  0  0  0  0  0  0  0  0  0
   -5.0006   -0.7230   -2.3479 O   0  0  0  0  0  0  0  0  0  0  0  0
   -1.4062    1.7527    1.8887 C   0  0  0  0  0  0  0  0  0  0  0  0
   -1.5343    2.5898    2.9941 C   0  0  0  0  0  0  0  0  0  0  0  0
   -1.5112    4.0131    2.8036 C   0  0  0  0  0  0  0  0  0  0  0  0
   -1.3487    4.4910    1.5042 C   0  0  0  0  0  0  0  0  0  0  0  0
   -1.2277    3.6311    0.4085 C   0  0  0  0  0  0  0  0  0  0  0  0
   -1.2448    2.2330    0.5925 C   0  0  0  0  0  0  0  0  0  0  0  0
    5.4775    3.0820    0.6030 F   0  0  0  0  0  0  0  0  0  0  0  0
  1  2  1  0  0  0  0
  2  3  1  0  0  0  0
  2  5  1  0  0  0  0
  3  4  1  0  0  0  0
  5  6  4  0  0  0  0
  5 10  4  0  0  0  0
  6  7  4  0  0  0  0
  7  8  4  0  0  0  0
  8  9  4  0  0  0  0
  9 10  4  0  0  0  0
 10 11  1  0  0  0  0
 11 12  4  0  0  0  0
 11 15  4  0  0  0  0
 12 13  1  0  0  0  0
 12 68  4  0  0  0  0
 13 14  1  0  0  0  0
 15 16  1  0  0  0  0
 15 67  4  0  0  0  0
 16 17  1  0  0  0  0
 17 18  1  0  0  0  0
 17 19  1  0  0  0  0
 17 20  1  0  0  0  0
 20 21  1  0  0  0  0
 21 22  1  0  0  0  0
 22 23  1  0  0  0  0
 22 66  2  0  0  0  0
 23 24  1  0  0  0  0
 23 65  1  0  0  0  0
 24 25  1  0  0  0  0
 25 26  1  0  0  0  0
 25 63  1  0  0  0  0
 26 27  1  0  0  0  0
 26 62  2  0  0  0  0
 27 28  1  0  0  0  0
 27 55  1  0  0  0  0
 28 29  1  0  0  0  0
 29 30  1  0  0  0  0
 29 54  2  0  0  0  0
 30 31  1  0  0  0  0
 30 34  1  0  0  0  0
 31 32  1  0  0  0  0
 31 33  1  0  0  0  0
 34 35  1  0  0  0  0
 34 53  1  0  0  0  0
 35 36  1  0  0  0  0
 35 52  2  0  0  0  0
 36 37  1  0  0  0  0
 36 51  1  0  0  0  0
 36 73  1  0  0  0  0
 37 38  1  0  0  0  0
 38 39  1  0  0  0  0
 39 40  1  0  0  0  0
 39 50  1  0  0  0  0
 40 41  1  0  0  0  0
 40 49  2  0  0  0  0
 41 42  1  0  0  0  0
 42 43  1  0  0  0  0
 43 44  1  0  0  0  0
 43 47  1  0  0  0  0
 43 48  1  0  0  0  0
 44 45  1  0  0  0  0
 44 46  1  0  0  0  0
 50 51  1  0  0  0  0
 55 56  1  0  0  0  0
 56 57  1  0  0  0  0
 56 61  1  0  0  0  0
 57 58  1  0  0  0  0
 58 59  1  0  0  0  0
 58 71  1  0  0  0  0
 59 60  1  0  0  0  0
 60 61  1  0  0  0  0
 63 64  1  0  0  0  0
 64 65  1  0  0  0  0
 67 68  4  0  0  0  0
 67 72  4  0  0  0  0
 68 69  4  0  0  0  0
 69 70  4  0  0  0  0
 70 71  4  0  0  0  0
 71 72  4  0  0  0  0
M  END
$$$$
