mol_ETKDG5_261
  PyMOL3.1          3D                             0

 73 79  0  0  0  0  0  0  0  0999 V2000
   -2.6010    2.7041   -4.6568 C   0  0  0  0  0  0  0  0  0  0  0  0
   -2.7576    3.4833   -3.4027 C   0  0  0  0  0  0  0  0  0  0  0  0
   -4.0998    3.7592   -3.0319 O   0  0  0  0  0  0  0  0  0  0  0  0
   -4.8053    2.7393   -2.3741 C   0  0  0  0  0  0  0  0  0  0  0  0
   -2.0522    4.7789   -3.4402 C   0  0  0  0  0  0  0  0  0  0  0  0
   -2.6104    5.7725   -4.1086 N   0  0  0  0  0  0  0  0  0  0  0  0
   -1.9982    6.9728   -4.2236 C   0  0  0  0  0  0  0  0  0  0  0  0
   -0.7422    7.2160   -3.6539 C   0  0  0  0  0  0  0  0  0  0  0  0
   -0.1244    6.1691   -2.9536 C   0  0  0  0  0  0  0  0  0  0  0  0
   -0.8142    4.9490   -2.8310 C   0  0  0  0  0  0  0  0  0  0  0  0
   -0.1941    3.8863   -2.0786 C   0  0  0  0  0  0  0  0  0  0  0  0
    0.7122    3.0324   -2.6150 N   0  0  0  0  0  0  0  0  0  0  0  0
    1.2073    2.9825   -4.0369 C   0  0  0  0  0  0  0  0  0  0  0  0
    2.5535    3.5523   -4.1987 C   0  0  0  0  0  0  0  0  0  0  0  0
   -0.4963    3.5264   -0.7297 C   0  0  0  0  0  0  0  0  0  0  0  0
   -1.5285    4.0547    0.2355 C   0  0  0  0  0  0  0  0  0  0  0  0
   -1.0659    5.1485    1.3008 C   0  0  0  0  0  0  0  0  0  0  0  0
   -0.3498    6.3125    0.6512 C   0  0  0  0  0  0  0  0  0  0  0  0
   -2.3236    5.7112    1.9225 C   0  0  0  0  0  0  0  0  0  0  0  0
   -0.1339    4.5665    2.4055 C   0  0  0  0  0  0  0  0  0  0  0  0
   -0.8018    3.7152    3.4731 O   0  0  0  0  0  0  0  0  0  0  0  0
   -0.9086    4.0787    4.8663 C   0  0  0  0  0  0  0  0  0  0  0  0
   -1.4039    3.0344    5.8710 C   0  0  0  0  0  0  0  0  0  0  0  0
   -2.3449    2.1511    5.2622 N   0  0  0  0  0  0  0  0  0  0  0  0
   -2.9189    1.1596    6.0591 N   0  0  0  0  0  0  0  0  0  0  0  0
   -2.8731   -0.1528    5.6928 C   0  0  0  0  0  0  0  0  0  0  0  0
   -2.2007   -0.5102    4.4085 C   0  0  0  0  0  0  0  0  0  0  0  0
   -2.9222   -1.5148    3.6537 N   0  0  0  0  0  0  0  0  0  0  0  0
   -3.8215   -1.2291    2.7068 C   0  0  0  0  0  0  0  0  0  0  0  0
   -4.3132   -2.3884    1.9134 C   0  0  0  0  0  0  0  0  0  0  0  0
   -5.7656   -2.8502    2.2529 C   0  0  0  0  0  0  0  0  0  0  0  0
   -6.1397   -4.1139    1.5515 C   0  0  0  0  0  0  0  0  0  0  0  0
   -6.0321   -2.9090    3.7251 C   0  0  0  0  0  0  0  0  0  0  0  0
   -4.1517   -2.0488    0.5018 N   0  0  0  0  0  0  0  0  0  0  0  0
   -2.9360   -2.2873   -0.0830 C   0  0  0  0  0  0  0  0  0  0  0  0
   -2.6070   -2.0130   -1.5252 C   0  0  0  0  0  0  0  0  0  0  0  0
   -1.0928   -1.8947   -1.7513 C   0  0  0  0  0  0  0  0  0  0  0  0
   -0.7755   -1.6488   -3.1663 C   0  0  0  0  0  0  0  0  0  0  0  0
   -1.4988   -2.6145   -4.0146 N   0  0  0  0  0  0  0  0  0  0  0  0
   -0.9305   -3.3286   -5.0012 C   0  0  0  0  0  0  0  0  0  0  0  0
    0.4308   -3.3422   -5.2446 C   0  0  0  0  0  0  0  0  0  0  0  0
    1.5351   -3.4141   -5.5948 C   0  0  0  0  0  0  0  0  0  0  0  0
    2.9064   -3.3924   -5.8795 C   0  0  0  0  0  0  0  0  0  0  0  0
    3.3356   -2.0861   -6.2218 N   0  0  0  0  0  0  0  0  0  0  0  0
    4.3190   -1.8619   -7.1966 C   0  0  0  0  0  0  0  0  0  0  0  0
    3.0131   -1.0042   -5.3936 C   0  0  0  0  0  0  0  0  0  0  0  0
    3.7150   -3.8827   -4.6681 C   0  0  0  0  0  0  0  0  0  0  0  0
    3.1791   -4.3507   -7.0076 C   0  0  0  0  0  0  0  0  0  0  0  0
   -1.6711   -4.0324   -5.7105 O   0  0  0  0  0  0  0  0  0  0  0  0
   -2.8997   -2.8076   -3.7821 C   0  0  0  0  0  0  0  0  0  0  0  0
   -3.1706   -3.1120   -2.3735 C   0  0  0  0  0  0  0  0  0  0  0  0
   -2.0488   -2.7805    0.6326 O   0  0  0  0  0  0  0  0  0  0  0  0
   -5.2592   -1.3835   -0.2068 C   0  0  0  0  0  0  0  0  0  0  0  0
   -4.1085   -0.0757    2.4516 O   0  0  0  0  0  0  0  0  0  0  0  0
   -0.7448   -1.0271    4.7047 C   0  0  0  0  0  0  0  0  0  0  0  0
    0.1106   -1.3582    3.4625 C   0  0  0  0  0  0  0  0  0  0  0  0
    0.5178   -0.0758    2.8364 C   0  0  0  0  0  0  0  0  0  0  0  0
    1.4151   -0.2782    1.7239 N   0  0  0  0  0  0  0  0  0  0  0  0
    2.5792   -1.1191    1.9862 C   0  0  0  0  0  0  0  0  0  0  0  0
    2.1780   -2.3775    2.7787 C   0  0  0  0  0  0  0  0  0  0  0  0
    1.3028   -2.0653    3.9144 O   0  0  0  0  0  0  0  0  0  0  0  0
   -3.3339   -1.0589    6.4163 O   0  0  0  0  0  0  0  0  0  0  0  0
   -3.6172    1.6202    7.2506 C   0  0  0  0  0  0  0  0  0  0  0  0
   -2.6889    2.5723    8.0289 C   0  0  0  0  0  0  0  0  0  0  0  0
   -2.0719    3.6557    7.1333 C   0  0  0  0  0  0  0  0  0  0  0  0
   -0.6040    5.2043    5.2853 O   0  0  0  0  0  0  0  0  0  0  0  0
    0.3476    2.4248   -0.5009 C   0  0  0  0  0  0  0  0  0  0  0  0
    1.0660    2.1589   -1.6656 C   0  0  0  0  0  0  0  0  0  0  0  0
    1.9679    1.0441   -1.7027 C   0  0  0  0  0  0  0  0  0  0  0  0
    2.0655    0.2670   -0.5492 C   0  0  0  0  0  0  0  0  0  0  0  0
    1.3253    0.5463    0.6053 C   0  0  0  0  0  0  0  0  0  0  0  0
    0.4568    1.6427    0.6343 C   0  0  0  0  0  0  0  0  0  0  0  0
   -3.1411   -0.8122   -1.9431 F   0  0  0  0  0  0  0  0  0  0  0  0
  1  2  1  0  0  0  0
  2  3  1  0  0  0  0
  2  5  1  0  0  0  0
  3  4  1  0  0  0  0
  5  6  4  0  0  0  0
  5 10  4  0  0  0  0
  6  7  4  0  0  0  0
  7  8  4  0  0  0  0
  8  9  4  0  0  0  0
  9 10  4  0  0  0  0
 10 11  1  0  0  0  0
 11 12  4  0  0  0  0
 11 15  4  0  0  0  0
 12 13  1  0  0  0  0
 12 68  4  0  0  0  0
 13 14  1  0  0  0  0
 15 16  1  0  0  0  0
 15 67  4  0  0  0  0
 16 17  1  0  0  0  0
 17 18  1  0  0  0  0
 17 19  1  0  0  0  0
 17 20  1  0  0  0  0
 20 21  1  0  0  0  0
 21 22  1  0  0  0  0
 22 23  1  0  0  0  0
 22 66  2  0  0  0  0
 23 24  1  0  0  0  0
 23 65  1  0  0  0  0
 24 25  1  0  0  0  0
 25 26  1  0  0  0  0
 25 63  1  0  0  0  0
 26 27  1  0  0  0  0
 26 62  2  0  0  0  0
 27 28  1  0  0  0  0
 27 55  1  0  0  0  0
 28 29  1  0  0  0  0
 29 30  1  0  0  0  0
 29 54  2  0  0  0  0
 30 31  1  0  0  0  0
 30 34  1  0  0  0  0
 31 32  1  0  0  0  0
 31 33  1  0  0  0  0
 34 35  1  0  0  0  0
 34 53  1  0  0  0  0
 35 36  1  0  0  0  0
 35 52  2  0  0  0  0
 36 37  1  0  0  0  0
 36 51  1  0  0  0  0
 36 73  1  0  0  0  0
 37 38  1  0  0  0  0
 38 39  1  0  0  0  0
 39 40  1  0  0  0  0
 39 50  1  0  0  0  0
 40 41  1  0  0  0  0
 40 49  2  0  0  0  0
 41 42  1  0  0  0  0
 42 43  1  0  0  0  0
 43 44  1  0  0  0  0
 43 47  1  0  0  0  0
 43 48  1  0  0  0  0
 44 45  1  0  0  0  0
 44 46  1  0  0  0  0
 50 51  1  0  0  0  0
 55 56  1  0  0  0  0
 56 57  1  0  0  0  0
 56 61  1  0  0  0  0
 57 58  1  0  0  0  0
 58 59  1  0  0  0  0
 58 71  1  0  0  0  0
 59 60  1  0  0  0  0
 60 61  1  0  0  0  0
 63 64  1  0  0  0  0
 64 65  1  0  0  0  0
 67 68  4  0  0  0  0
 67 72  4  0  0  0  0
 68 69  4  0  0  0  0
 69 70  4  0  0  0  0
 70 71  4  0  0  0  0
 71 72  4  0  0  0  0
M  END
$$$$
