mol_ETKDG3_193
  PyMOL3.1          3D                             0

 73 79  0  0  0  0  0  0  0  0999 V2000
   -1.0186    8.0543    0.1666 C   0  0  0  0  0  0  0  0  0  0  0  0
   -0.1173    7.0415   -0.4356 C   0  0  0  0  0  0  0  0  0  0  0  0
   -0.4184    6.6449   -1.7329 O   0  0  0  0  0  0  0  0  0  0  0  0
   -1.6093    5.9017   -1.9259 C   0  0  0  0  0  0  0  0  0  0  0  0
    1.3011    7.4427   -0.4087 C   0  0  0  0  0  0  0  0  0  0  0  0
    1.6590    8.5280   -1.0775 N   0  0  0  0  0  0  0  0  0  0  0  0
    2.9194    9.0083   -1.0141 C   0  0  0  0  0  0  0  0  0  0  0  0
    3.9007    8.3899   -0.2365 C   0  0  0  0  0  0  0  0  0  0  0  0
    3.5405    7.2387    0.4807 C   0  0  0  0  0  0  0  0  0  0  0  0
    2.2313    6.7491    0.3420 C   0  0  0  0  0  0  0  0  0  0  0  0
    1.8865    5.5241    1.0196 C   0  0  0  0  0  0  0  0  0  0  0  0
    1.3694    5.4977    2.2659 N   0  0  0  0  0  0  0  0  0  0  0  0
    1.0610    6.6728    3.1602 C   0  0  0  0  0  0  0  0  0  0  0  0
    2.0467    6.8404    4.2400 C   0  0  0  0  0  0  0  0  0  0  0  0
    1.9483    4.2122    0.4687 C   0  0  0  0  0  0  0  0  0  0  0  0
    2.3051    3.7179   -0.9092 C   0  0  0  0  0  0  0  0  0  0  0  0
    3.8367    3.4194   -1.1818 C   0  0  0  0  0  0  0  0  0  0  0  0
    3.9509    2.8958   -2.5985 C   0  0  0  0  0  0  0  0  0  0  0  0
    4.6704    4.6516   -1.1710 C   0  0  0  0  0  0  0  0  0  0  0  0
    4.4058    2.4213   -0.2038 C   0  0  0  0  0  0  0  0  0  0  0  0
    4.3429    0.9793   -0.6187 O   0  0  0  0  0  0  0  0  0  0  0  0
    5.3944    0.0437   -0.4417 C   0  0  0  0  0  0  0  0  0  0  0  0
    5.1713   -1.3969   -0.8453 C   0  0  0  0  0  0  0  0  0  0  0  0
    3.9337   -1.5396   -1.5485 N   0  0  0  0  0  0  0  0  0  0  0  0
    3.6034   -2.8165   -1.9932 N   0  0  0  0  0  0  0  0  0  0  0  0
    2.4109   -3.3949   -1.6569 C   0  0  0  0  0  0  0  0  0  0  0  0
    1.4401   -2.6154   -0.8204 C   0  0  0  0  0  0  0  0  0  0  0  0
    0.0738   -2.9172   -1.1847 N   0  0  0  0  0  0  0  0  0  0  0  0
   -0.6786   -2.0942   -1.9209 C   0  0  0  0  0  0  0  0  0  0  0  0
   -2.1213   -2.4642   -2.0602 C   0  0  0  0  0  0  0  0  0  0  0  0
   -2.4640   -3.0776   -3.4658 C   0  0  0  0  0  0  0  0  0  0  0  0
   -3.8783   -3.5524   -3.5653 C   0  0  0  0  0  0  0  0  0  0  0  0
   -1.4806   -4.1423   -3.8734 C   0  0  0  0  0  0  0  0  0  0  0  0
   -2.8712   -1.2399   -1.7566 N   0  0  0  0  0  0  0  0  0  0  0  0
   -3.0860   -0.9123   -0.4349 C   0  0  0  0  0  0  0  0  0  0  0  0
   -3.7409    0.3570    0.0466 C   0  0  0  0  0  0  0  0  0  0  0  0
   -4.0277    0.3432    1.5609 C   0  0  0  0  0  0  0  0  0  0  0  0
   -4.5467    1.6608    2.0328 C   0  0  0  0  0  0  0  0  0  0  0  0
   -3.6819    2.7631    1.5728 N   0  0  0  0  0  0  0  0  0  0  0  0
   -3.1880    3.7398    2.3877 C   0  0  0  0  0  0  0  0  0  0  0  0
   -3.2935    3.6687    3.7584 C   0  0  0  0  0  0  0  0  0  0  0  0
   -3.3849    3.7432    4.9121 C   0  0  0  0  0  0  0  0  0  0  0  0
   -3.5733    3.7095    6.2992 C   0  0  0  0  0  0  0  0  0  0  0  0
   -4.3742    4.8122    6.7263 N   0  0  0  0  0  0  0  0  0  0  0  0
   -5.3180    4.6881    7.7614 C   0  0  0  0  0  0  0  0  0  0  0  0
   -4.0210    6.1326    6.3459 C   0  0  0  0  0  0  0  0  0  0  0  0
   -4.2305    2.3754    6.6395 C   0  0  0  0  0  0  0  0  0  0  0  0
   -2.2393    3.7466    7.0459 C   0  0  0  0  0  0  0  0  0  0  0  0
   -2.5898    4.7137    1.8886 O   0  0  0  0  0  0  0  0  0  0  0  0
   -3.3451    2.7835    0.1820 C   0  0  0  0  0  0  0  0  0  0  0  0
   -2.7664    1.4857   -0.2399 C   0  0  0  0  0  0  0  0  0  0  0  0
   -2.6825   -1.7184    0.4250 O   0  0  0  0  0  0  0  0  0  0  0  0
   -3.2482   -0.3435   -2.8635 C   0  0  0  0  0  0  0  0  0  0  0  0
   -0.2195   -1.0413   -2.3274 O   0  0  0  0  0  0  0  0  0  0  0  0
    1.6286   -2.9518    0.7087 C   0  0  0  0  0  0  0  0  0  0  0  0
    0.7087   -2.1132    1.6407 C   0  0  0  0  0  0  0  0  0  0  0  0
    1.3590   -0.7876    1.8262 C   0  0  0  0  0  0  0  0  0  0  0  0
    0.6220    0.0415    2.7508 N   0  0  0  0  0  0  0  0  0  0  0  0
    0.3416   -0.6070    4.0478 C   0  0  0  0  0  0  0  0  0  0  0  0
   -0.2245   -2.0202    3.8382 C   0  0  0  0  0  0  0  0  0  0  0  0
    0.6197   -2.7952    2.9145 O   0  0  0  0  0  0  0  0  0  0  0  0
    2.1358   -4.5599   -1.9979 O   0  0  0  0  0  0  0  0  0  0  0  0
    4.5790   -3.4539   -2.8777 C   0  0  0  0  0  0  0  0  0  0  0  0
    5.9827   -3.3688   -2.2376 C   0  0  0  0  0  0  0  0  0  0  0  0
    6.3132   -1.9574   -1.7423 C   0  0  0  0  0  0  0  0  0  0  0  0
    6.5185    0.3204    0.0327 O   0  0  0  0  0  0  0  0  0  0  0  0
    1.4872    3.3996    1.5092 C   0  0  0  0  0  0  0  0  0  0  0  0
    1.1284    4.2181    2.5766 C   0  0  0  0  0  0  0  0  0  0  0  0
    0.5687    3.6300    3.7545 C   0  0  0  0  0  0  0  0  0  0  0  0
    0.4092    2.2414    3.7622 C   0  0  0  0  0  0  0  0  0  0  0  0
    0.7875    1.4339    2.6880 C   0  0  0  0  0  0  0  0  0  0  0  0
    1.3244    2.0200    1.5286 C   0  0  0  0  0  0  0  0  0  0  0  0
   -4.9449    0.5650   -0.6022 F   0  0  0  0  0  0  0  0  0  0  0  0
  1  2  1  0  0  0  0
  2  3  1  0  0  0  0
  2  5  1  0  0  0  0
  3  4  1  0  0  0  0
  5  6  4  0  0  0  0
  5 10  4  0  0  0  0
  6  7  4  0  0  0  0
  7  8  4  0  0  0  0
  8  9  4  0  0  0  0
  9 10  4  0  0  0  0
 10 11  1  0  0  0  0
 11 12  4  0  0  0  0
 11 15  4  0  0  0  0
 12 13  1  0  0  0  0
 12 68  4  0  0  0  0
 13 14  1  0  0  0  0
 15 16  1  0  0  0  0
 15 67  4  0  0  0  0
 16 17  1  0  0  0  0
 17 18  1  0  0  0  0
 17 19  1  0  0  0  0
 17 20  1  0  0  0  0
 20 21  1  0  0  0  0
 21 22  1  0  0  0  0
 22 23  1  0  0  0  0
 22 66  2  0  0  0  0
 23 24  1  0  0  0  0
 23 65  1  0  0  0  0
 24 25  1  0  0  0  0
 25 26  1  0  0  0  0
 25 63  1  0  0  0  0
 26 27  1  0  0  0  0
 26 62  2  0  0  0  0
 27 28  1  0  0  0  0
 27 55  1  0  0  0  0
 28 29  1  0  0  0  0
 29 30  1  0  0  0  0
 29 54  2  0  0  0  0
 30 31  1  0  0  0  0
 30 34  1  0  0  0  0
 31 32  1  0  0  0  0
 31 33  1  0  0  0  0
 34 35  1  0  0  0  0
 34 53  1  0  0  0  0
 35 36  1  0  0  0  0
 35 52  2  0  0  0  0
 36 37  1  0  0  0  0
 36 51  1  0  0  0  0
 36 73  1  0  0  0  0
 37 38  1  0  0  0  0
 38 39  1  0  0  0  0
 39 40  1  0  0  0  0
 39 50  1  0  0  0  0
 40 41  1  0  0  0  0
 40 49  2  0  0  0  0
 41 42  1  0  0  0  0
 42 43  1  0  0  0  0
 43 44  1  0  0  0  0
 43 47  1  0  0  0  0
 43 48  1  0  0  0  0
 44 45  1  0  0  0  0
 44 46  1  0  0  0  0
 50 51  1  0  0  0  0
 55 56  1  0  0  0  0
 56 57  1  0  0  0  0
 56 61  1  0  0  0  0
 57 58  1  0  0  0  0
 58 59  1  0  0  0  0
 58 71  1  0  0  0  0
 59 60  1  0  0  0  0
 60 61  1  0  0  0  0
 63 64  1  0  0  0  0
 64 65  1  0  0  0  0
 67 68  4  0  0  0  0
 67 72  4  0  0  0  0
 68 69  4  0  0  0  0
 69 70  4  0  0  0  0
 70 71  4  0  0  0  0
 71 72  4  0  0  0  0
M  END
$$$$
