mol_ETKDG4_205
  PyMOL3.1          3D                             0

 73 79  0  0  0  0  0  0  0  0999 V2000
   -4.3919   -0.8109    0.4069 C   0  0  0  0  0  0  0  0  0  0  0  0
   -3.8015    0.2746    1.2193 C   0  0  0  0  0  0  0  0  0  0  0  0
   -4.6284    1.4008    1.4241 O   0  0  0  0  0  0  0  0  0  0  0  0
   -4.9363    2.1916    0.2917 C   0  0  0  0  0  0  0  0  0  0  0  0
   -3.3491   -0.1981    2.5369 C   0  0  0  0  0  0  0  0  0  0  0  0
   -4.2456   -0.3105    3.5010 N   0  0  0  0  0  0  0  0  0  0  0  0
   -3.9048   -0.7868    4.7171 C   0  0  0  0  0  0  0  0  0  0  0  0
   -2.5947   -1.1953    5.0033 C   0  0  0  0  0  0  0  0  0  0  0  0
   -1.6333   -1.0967    3.9860 C   0  0  0  0  0  0  0  0  0  0  0  0
   -2.0245   -0.5728    2.7441 C   0  0  0  0  0  0  0  0  0  0  0  0
   -1.0242   -0.4302    1.7071 C   0  0  0  0  0  0  0  0  0  0  0  0
   -0.6102   -1.4571    0.9162 N   0  0  0  0  0  0  0  0  0  0  0  0
   -1.1008   -2.8766    0.9264 C   0  0  0  0  0  0  0  0  0  0  0  0
   -0.1566   -3.8057    1.5548 C   0  0  0  0  0  0  0  0  0  0  0  0
   -0.3943    0.7841    1.3236 C   0  0  0  0  0  0  0  0  0  0  0  0
   -0.6080    2.2093    1.7978 C   0  0  0  0  0  0  0  0  0  0  0  0
    0.3237    2.7022    2.9876 C   0  0  0  0  0  0  0  0  0  0  0  0
   -0.2129    4.0434    3.4792 C   0  0  0  0  0  0  0  0  0  0  0  0
    0.2613    1.8011    4.1698 C   0  0  0  0  0  0  0  0  0  0  0  0
    1.7689    2.8634    2.5454 C   0  0  0  0  0  0  0  0  0  0  0  0
    2.0669    4.0994    1.7258 O   0  0  0  0  0  0  0  0  0  0  0  0
    3.2459    4.8945    1.8727 C   0  0  0  0  0  0  0  0  0  0  0  0
    3.4516    6.0723    0.9278 C   0  0  0  0  0  0  0  0  0  0  0  0
    2.2617    6.2961    0.1601 N   0  0  0  0  0  0  0  0  0  0  0  0
    2.2700    7.3534   -0.7444 N   0  0  0  0  0  0  0  0  0  0  0  0
    1.9807    7.1551   -2.0679 C   0  0  0  0  0  0  0  0  0  0  0  0
    1.6668    5.7642   -2.5284 C   0  0  0  0  0  0  0  0  0  0  0  0
    0.6102    5.7301   -3.5235 N   0  0  0  0  0  0  0  0  0  0  0  0
   -0.6700    5.4463   -3.2245 C   0  0  0  0  0  0  0  0  0  0  0  0
   -1.6054    5.2942   -4.3769 C   0  0  0  0  0  0  0  0  0  0  0  0
   -2.5992    6.4932   -4.5577 C   0  0  0  0  0  0  0  0  0  0  0  0
   -3.3575    6.4307   -5.8433 C   0  0  0  0  0  0  0  0  0  0  0  0
   -1.9408    7.8217   -4.3440 C   0  0  0  0  0  0  0  0  0  0  0  0
   -2.2808    4.0104   -4.1705 N   0  0  0  0  0  0  0  0  0  0  0  0
   -1.6678    2.8969   -4.6799 C   0  0  0  0  0  0  0  0  0  0  0  0
   -1.9735    1.4797   -4.3045 C   0  0  0  0  0  0  0  0  0  0  0  0
   -3.1121    0.8277   -5.0095 C   0  0  0  0  0  0  0  0  0  0  0  0
   -3.3318   -0.5242   -4.3898 C   0  0  0  0  0  0  0  0  0  0  0  0
   -2.0703   -1.3018   -4.2729 N   0  0  0  0  0  0  0  0  0  0  0  0
   -2.0624   -2.6355   -4.2615 C   0  0  0  0  0  0  0  0  0  0  0  0
   -0.9454   -3.3616   -4.6842 C   0  0  0  0  0  0  0  0  0  0  0  0
   -0.1924   -4.1021   -5.1315 C   0  0  0  0  0  0  0  0  0  0  0  0
    0.7689   -4.8935   -5.7463 C   0  0  0  0  0  0  0  0  0  0  0  0
    0.1339   -5.7552   -6.6932 N   0  0  0  0  0  0  0  0  0  0  0  0
    0.8249   -6.3116   -7.7671 C   0  0  0  0  0  0  0  0  0  0  0  0
   -1.1346   -6.3149   -6.3847 C   0  0  0  0  0  0  0  0  0  0  0  0
    1.7860   -3.9832   -6.4210 C   0  0  0  0  0  0  0  0  0  0  0  0
    1.5294   -5.7258   -4.7182 C   0  0  0  0  0  0  0  0  0  0  0  0
   -3.0596   -3.2235   -3.8852 O   0  0  0  0  0  0  0  0  0  0  0  0
   -0.8403   -0.6460   -4.0888 C   0  0  0  0  0  0  0  0  0  0  0  0
   -0.6933    0.6457   -4.5011 C   0  0  0  0  0  0  0  0  0  0  0  0
   -0.7162    3.0793   -5.4613 O   0  0  0  0  0  0  0  0  0  0  0  0
   -3.5189    3.9539   -3.3703 C   0  0  0  0  0  0  0  0  0  0  0  0
   -0.9892    5.2155   -2.0739 O   0  0  0  0  0  0  0  0  0  0  0  0
    2.9648    5.0870   -3.1176 C   0  0  0  0  0  0  0  0  0  0  0  0
    2.8154    3.5805   -3.4682 C   0  0  0  0  0  0  0  0  0  0  0  0
    2.7502    2.8212   -2.1869 C   0  0  0  0  0  0  0  0  0  0  0  0
    2.7288    1.3930   -2.3973 N   0  0  0  0  0  0  0  0  0  0  0  0
    3.7934    0.8691   -3.2458 C   0  0  0  0  0  0  0  0  0  0  0  0
    3.9723    1.7393   -4.5023 C   0  0  0  0  0  0  0  0  0  0  0  0
    4.0171    3.1762   -4.1815 O   0  0  0  0  0  0  0  0  0  0  0  0
    2.0115    8.0829   -2.8924 O   0  0  0  0  0  0  0  0  0  0  0  0
    2.5344    8.6722   -0.1704 C   0  0  0  0  0  0  0  0  0  0  0  0
    3.8071    8.5959    0.7067 C   0  0  0  0  0  0  0  0  0  0  0  0
    3.7955    7.4012    1.6725 C   0  0  0  0  0  0  0  0  0  0  0  0
    4.1220    4.6945    2.7307 O   0  0  0  0  0  0  0  0  0  0  0  0
    0.4517    0.3903    0.2682 C   0  0  0  0  0  0  0  0  0  0  0  0
    0.2963   -0.9803    0.0537 C   0  0  0  0  0  0  0  0  0  0  0  0
    1.0249   -1.6139   -1.0040 C   0  0  0  0  0  0  0  0  0  0  0  0
    1.8526   -0.7988   -1.7857 C   0  0  0  0  0  0  0  0  0  0  0  0
    1.9594    0.5824   -1.5656 C   0  0  0  0  0  0  0  0  0  0  0  0
    1.2702    1.1844   -0.5102 C   0  0  0  0  0  0  0  0  0  0  0  0
   -2.2747    1.4373   -2.9516 F   0  0  0  0  0  0  0  0  0  0  0  0
  1  2  1  0  0  0  0
  2  3  1  0  0  0  0
  2  5  1  0  0  0  0
  3  4  1  0  0  0  0
  5  6  4  0  0  0  0
  5 10  4  0  0  0  0
  6  7  4  0  0  0  0
  7  8  4  0  0  0  0
  8  9  4  0  0  0  0
  9 10  4  0  0  0  0
 10 11  1  0  0  0  0
 11 12  4  0  0  0  0
 11 15  4  0  0  0  0
 12 13  1  0  0  0  0
 12 68  4  0  0  0  0
 13 14  1  0  0  0  0
 15 16  1  0  0  0  0
 15 67  4  0  0  0  0
 16 17  1  0  0  0  0
 17 18  1  0  0  0  0
 17 19  1  0  0  0  0
 17 20  1  0  0  0  0
 20 21  1  0  0  0  0
 21 22  1  0  0  0  0
 22 23  1  0  0  0  0
 22 66  2  0  0  0  0
 23 24  1  0  0  0  0
 23 65  1  0  0  0  0
 24 25  1  0  0  0  0
 25 26  1  0  0  0  0
 25 63  1  0  0  0  0
 26 27  1  0  0  0  0
 26 62  2  0  0  0  0
 27 28  1  0  0  0  0
 27 55  1  0  0  0  0
 28 29  1  0  0  0  0
 29 30  1  0  0  0  0
 29 54  2  0  0  0  0
 30 31  1  0  0  0  0
 30 34  1  0  0  0  0
 31 32  1  0  0  0  0
 31 33  1  0  0  0  0
 34 35  1  0  0  0  0
 34 53  1  0  0  0  0
 35 36  1  0  0  0  0
 35 52  2  0  0  0  0
 36 37  1  0  0  0  0
 36 51  1  0  0  0  0
 36 73  1  0  0  0  0
 37 38  1  0  0  0  0
 38 39  1  0  0  0  0
 39 40  1  0  0  0  0
 39 50  1  0  0  0  0
 40 41  1  0  0  0  0
 40 49  2  0  0  0  0
 41 42  1  0  0  0  0
 42 43  1  0  0  0  0
 43 44  1  0  0  0  0
 43 47  1  0  0  0  0
 43 48  1  0  0  0  0
 44 45  1  0  0  0  0
 44 46  1  0  0  0  0
 50 51  1  0  0  0  0
 55 56  1  0  0  0  0
 56 57  1  0  0  0  0
 56 61  1  0  0  0  0
 57 58  1  0  0  0  0
 58 59  1  0  0  0  0
 58 71  1  0  0  0  0
 59 60  1  0  0  0  0
 60 61  1  0  0  0  0
 63 64  1  0  0  0  0
 64 65  1  0  0  0  0
 67 68  4  0  0  0  0
 67 72  4  0  0  0  0
 68 69  4  0  0  0  0
 69 70  4  0  0  0  0
 70 71  4  0  0  0  0
 71 72  4  0  0  0  0
M  END
$$$$
