mol_ETKDG2_131
  PyMOL3.1          3D                             0

 73 79  0  0  0  0  0  0  0  0999 V2000
   -2.6326    6.2959   -0.1948 C   0  0  0  0  0  0  0  0  0  0  0  0
   -1.2748    6.2728    0.3808 C   0  0  0  0  0  0  0  0  0  0  0  0
   -0.2115    6.1243   -0.5317 O   0  0  0  0  0  0  0  0  0  0  0  0
   -0.0117    4.8544   -1.0998 C   0  0  0  0  0  0  0  0  0  0  0  0
   -0.9949    7.4643    1.1985 C   0  0  0  0  0  0  0  0  0  0  0  0
   -0.6713    8.5826    0.5753 N   0  0  0  0  0  0  0  0  0  0  0  0
   -0.4593    9.7285    1.2585 C   0  0  0  0  0  0  0  0  0  0  0  0
   -0.5856    9.7845    2.6505 C   0  0  0  0  0  0  0  0  0  0  0  0
   -0.9425    8.6105    3.3291 C   0  0  0  0  0  0  0  0  0  0  0  0
   -1.1207    7.4365    2.5855 C   0  0  0  0  0  0  0  0  0  0  0  0
   -1.4240    6.2074    3.2779 C   0  0  0  0  0  0  0  0  0  0  0  0
   -2.6485    5.8960    3.7751 N   0  0  0  0  0  0  0  0  0  0  0  0
   -3.9049    6.7093    3.6950 C   0  0  0  0  0  0  0  0  0  0  0  0
   -4.2833    7.3429    4.9532 C   0  0  0  0  0  0  0  0  0  0  0  0
   -0.5259    5.1206    3.4481 C   0  0  0  0  0  0  0  0  0  0  0  0
    0.9013    4.9393    2.9934 C   0  0  0  0  0  0  0  0  0  0  0  0
    2.0111    5.5294    3.9609 C   0  0  0  0  0  0  0  0  0  0  0  0
    1.8059    6.9746    4.3212 C   0  0  0  0  0  0  0  0  0  0  0  0
    3.3306    5.4981    3.2296 C   0  0  0  0  0  0  0  0  0  0  0  0
    2.0918    4.7491    5.2419 C   0  0  0  0  0  0  0  0  0  0  0  0
    2.7925    3.4281    5.1507 O   0  0  0  0  0  0  0  0  0  0  0  0
    3.7224    2.9523    6.1177 C   0  0  0  0  0  0  0  0  0  0  0  0
    4.2868    1.5586    5.9500 C   0  0  0  0  0  0  0  0  0  0  0  0
    3.9972    1.0577    4.6383 N   0  0  0  0  0  0  0  0  0  0  0  0
    4.5052   -0.2005    4.3037 N   0  0  0  0  0  0  0  0  0  0  0  0
    3.6910   -1.1952    3.8350 C   0  0  0  0  0  0  0  0  0  0  0  0
    2.2234   -0.9186    3.6800 C   0  0  0  0  0  0  0  0  0  0  0  0
    1.6900   -1.5478    2.4847 N   0  0  0  0  0  0  0  0  0  0  0  0
    1.4509   -0.8725    1.3471 C   0  0  0  0  0  0  0  0  0  0  0  0
    0.7531   -1.6284    0.2554 C   0  0  0  0  0  0  0  0  0  0  0  0
    1.6933   -2.0821   -0.9069 C   0  0  0  0  0  0  0  0  0  0  0  0
    1.0112   -2.9971   -1.8730 C   0  0  0  0  0  0  0  0  0  0  0  0
    3.0010   -2.6281   -0.4228 C   0  0  0  0  0  0  0  0  0  0  0  0
   -0.3190   -0.7419   -0.2058 N   0  0  0  0  0  0  0  0  0  0  0  0
   -1.5003   -0.7461    0.4838 C   0  0  0  0  0  0  0  0  0  0  0  0
   -2.6529    0.1840    0.1997 C   0  0  0  0  0  0  0  0  0  0  0  0
   -2.2742    1.5292    0.7781 C   0  0  0  0  0  0  0  0  0  0  0  0
   -3.3339    2.5380    0.5210 C   0  0  0  0  0  0  0  0  0  0  0  0
   -4.6015    2.0502    1.0744 N   0  0  0  0  0  0  0  0  0  0  0  0
   -5.3211    2.8554    1.9101 C   0  0  0  0  0  0  0  0  0  0  0  0
   -6.1779    2.3269    2.8622 C   0  0  0  0  0  0  0  0  0  0  0  0
   -6.8978    2.0368    3.7159 C   0  0  0  0  0  0  0  0  0  0  0  0
   -7.7275    1.4670    4.7066 C   0  0  0  0  0  0  0  0  0  0  0  0
   -7.8656    2.3453    5.8178 N   0  0  0  0  0  0  0  0  0  0  0  0
   -7.2161    2.0984    7.0340 C   0  0  0  0  0  0  0  0  0  0  0  0
   -8.5146    3.5929    5.6704 C   0  0  0  0  0  0  0  0  0  0  0  0
   -7.1444    0.1322    5.1251 C   0  0  0  0  0  0  0  0  0  0  0  0
   -9.1068    1.1660    4.1224 C   0  0  0  0  0  0  0  0  0  0  0  0
   -5.1907    4.0737    1.8705 O   0  0  0  0  0  0  0  0  0  0  0  0
   -5.0233    0.7265    0.6987 C   0  0  0  0  0  0  0  0  0  0  0  0
   -3.9658   -0.2833    0.8483 C   0  0  0  0  0  0  0  0  0  0  0  0
   -1.6139   -1.5470    1.4339 O   0  0  0  0  0  0  0  0  0  0  0  0
   -0.0386    0.2084   -1.2993 C   0  0  0  0  0  0  0  0  0  0  0  0
    1.6762    0.3230    1.2947 O   0  0  0  0  0  0  0  0  0  0  0  0
    1.4280   -1.4569    4.9402 C   0  0  0  0  0  0  0  0  0  0  0  0
   -0.0975   -1.1216    4.9126 C   0  0  0  0  0  0  0  0  0  0  0  0
   -0.2317    0.3157    5.2711 C   0  0  0  0  0  0  0  0  0  0  0  0
   -1.6033    0.7344    5.3820 N   0  0  0  0  0  0  0  0  0  0  0  0
   -2.4444   -0.0956    6.2558 C   0  0  0  0  0  0  0  0  0  0  0  0
   -2.2007   -1.5918    5.9808 C   0  0  0  0  0  0  0  0  0  0  0  0
   -0.7613   -1.9193    5.9359 O   0  0  0  0  0  0  0  0  0  0  0  0
    4.1275   -2.3284    3.5719 O   0  0  0  0  0  0  0  0  0  0  0  0
    5.9542   -0.3535    4.4315 C   0  0  0  0  0  0  0  0  0  0  0  0
    6.3976    0.1329    5.8287 C   0  0  0  0  0  0  0  0  0  0  0  0
    5.8252    1.5090    6.1736 C   0  0  0  0  0  0  0  0  0  0  0  0
    4.1248    3.6075    7.1140 O   0  0  0  0  0  0  0  0  0  0  0  0
   -1.3039    4.1543    4.1093 C   0  0  0  0  0  0  0  0  0  0  0  0
   -2.5850    4.6684    4.2994 C   0  0  0  0  0  0  0  0  0  0  0  0
   -3.5777    3.8556    4.9393 C   0  0  0  0  0  0  0  0  0  0  0  0
   -3.2173    2.5465    5.2825 C   0  0  0  0  0  0  0  0  0  0  0  0
   -1.9348    2.0524    5.0545 C   0  0  0  0  0  0  0  0  0  0  0  0
   -0.9539    2.8686    4.4741 C   0  0  0  0  0  0  0  0  0  0  0  0
   -2.9068    0.2531   -1.1575 F   0  0  0  0  0  0  0  0  0  0  0  0
  1  2  1  0  0  0  0
  2  3  1  0  0  0  0
  2  5  1  0  0  0  0
  3  4  1  0  0  0  0
  5  6  4  0  0  0  0
  5 10  4  0  0  0  0
  6  7  4  0  0  0  0
  7  8  4  0  0  0  0
  8  9  4  0  0  0  0
  9 10  4  0  0  0  0
 10 11  1  0  0  0  0
 11 12  4  0  0  0  0
 11 15  4  0  0  0  0
 12 13  1  0  0  0  0
 12 68  4  0  0  0  0
 13 14  1  0  0  0  0
 15 16  1  0  0  0  0
 15 67  4  0  0  0  0
 16 17  1  0  0  0  0
 17 18  1  0  0  0  0
 17 19  1  0  0  0  0
 17 20  1  0  0  0  0
 20 21  1  0  0  0  0
 21 22  1  0  0  0  0
 22 23  1  0  0  0  0
 22 66  2  0  0  0  0
 23 24  1  0  0  0  0
 23 65  1  0  0  0  0
 24 25  1  0  0  0  0
 25 26  1  0  0  0  0
 25 63  1  0  0  0  0
 26 27  1  0  0  0  0
 26 62  2  0  0  0  0
 27 28  1  0  0  0  0
 27 55  1  0  0  0  0
 28 29  1  0  0  0  0
 29 30  1  0  0  0  0
 29 54  2  0  0  0  0
 30 31  1  0  0  0  0
 30 34  1  0  0  0  0
 31 32  1  0  0  0  0
 31 33  1  0  0  0  0
 34 35  1  0  0  0  0
 34 53  1  0  0  0  0
 35 36  1  0  0  0  0
 35 52  2  0  0  0  0
 36 37  1  0  0  0  0
 36 51  1  0  0  0  0
 36 73  1  0  0  0  0
 37 38  1  0  0  0  0
 38 39  1  0  0  0  0
 39 40  1  0  0  0  0
 39 50  1  0  0  0  0
 40 41  1  0  0  0  0
 40 49  2  0  0  0  0
 41 42  1  0  0  0  0
 42 43  1  0  0  0  0
 43 44  1  0  0  0  0
 43 47  1  0  0  0  0
 43 48  1  0  0  0  0
 44 45  1  0  0  0  0
 44 46  1  0  0  0  0
 50 51  1  0  0  0  0
 55 56  1  0  0  0  0
 56 57  1  0  0  0  0
 56 61  1  0  0  0  0
 57 58  1  0  0  0  0
 58 59  1  0  0  0  0
 58 71  1  0  0  0  0
 59 60  1  0  0  0  0
 60 61  1  0  0  0  0
 63 64  1  0  0  0  0
 64 65  1  0  0  0  0
 67 68  4  0  0  0  0
 67 72  4  0  0  0  0
 68 69  4  0  0  0  0
 69 70  4  0  0  0  0
 70 71  4  0  0  0  0
 71 72  4  0  0  0  0
M  END
$$$$
