mol_ETKDG5_274
  PyMOL3.1          3D                             0

 73 79  0  0  0  0  0  0  0  0999 V2000
   -3.5566   -5.1336    4.5741 C   0  0  0  0  0  0  0  0  0  0  0  0
   -3.0765   -5.7504    3.3222 C   0  0  0  0  0  0  0  0  0  0  0  0
   -3.8562   -6.8641    2.8807 O   0  0  0  0  0  0  0  0  0  0  0  0
   -5.0299   -6.5687    2.1772 C   0  0  0  0  0  0  0  0  0  0  0  0
   -1.6734   -6.2064    3.3932 C   0  0  0  0  0  0  0  0  0  0  0  0
   -1.4444   -7.4494    3.7830 N   0  0  0  0  0  0  0  0  0  0  0  0
   -0.1906   -7.9347    3.8956 C   0  0  0  0  0  0  0  0  0  0  0  0
    0.9284   -7.1424    3.6213 C   0  0  0  0  0  0  0  0  0  0  0  0
    0.7093   -5.8187    3.2295 C   0  0  0  0  0  0  0  0  0  0  0  0
   -0.6082   -5.3550    3.1014 C   0  0  0  0  0  0  0  0  0  0  0  0
   -0.8094   -3.9908    2.6675 C   0  0  0  0  0  0  0  0  0  0  0  0
   -0.6988   -2.9224    3.4975 N   0  0  0  0  0  0  0  0  0  0  0  0
   -0.4250   -2.9189    4.9767 C   0  0  0  0  0  0  0  0  0  0  0  0
    0.9640   -2.5795    5.3022 C   0  0  0  0  0  0  0  0  0  0  0  0
   -1.1994   -3.5741    1.3671 C   0  0  0  0  0  0  0  0  0  0  0  0
   -1.5936   -4.3541    0.1483 C   0  0  0  0  0  0  0  0  0  0  0  0
   -0.4119   -4.7568   -0.8290 C   0  0  0  0  0  0  0  0  0  0  0  0
    0.4774   -5.8249   -0.2316 C   0  0  0  0  0  0  0  0  0  0  0  0
   -1.0266   -5.4054   -2.0322 C   0  0  0  0  0  0  0  0  0  0  0  0
    0.4279   -3.5509   -1.2256 C   0  0  0  0  0  0  0  0  0  0  0  0
   -0.1029   -2.7930   -2.4267 O   0  0  0  0  0  0  0  0  0  0  0  0
    0.6653   -2.5061   -3.5988 C   0  0  0  0  0  0  0  0  0  0  0  0
    0.0081   -1.7348   -4.7397 C   0  0  0  0  0  0  0  0  0  0  0  0
   -1.4204   -1.9334   -4.7140 N   0  0  0  0  0  0  0  0  0  0  0  0
   -2.1713   -1.3776   -5.7546 N   0  0  0  0  0  0  0  0  0  0  0  0
   -3.2429   -0.5627   -5.5048 C   0  0  0  0  0  0  0  0  0  0  0  0
   -3.5557   -0.2301   -4.0803 C   0  0  0  0  0  0  0  0  0  0  0  0
   -4.9850   -0.1570   -3.8119 N   0  0  0  0  0  0  0  0  0  0  0  0
   -5.6664   -1.1232   -3.1698 C   0  0  0  0  0  0  0  0  0  0  0  0
   -7.0896   -0.8109   -2.8268 C   0  0  0  0  0  0  0  0  0  0  0  0
   -8.1315   -1.5359   -3.7336 C   0  0  0  0  0  0  0  0  0  0  0  0
   -9.5010   -0.9600   -3.6351 C   0  0  0  0  0  0  0  0  0  0  0  0
   -7.6761   -1.7515   -5.1333 C   0  0  0  0  0  0  0  0  0  0  0  0
   -7.2632   -1.1587   -1.4090 N   0  0  0  0  0  0  0  0  0  0  0  0
   -6.9082   -0.2342   -0.4450 C   0  0  0  0  0  0  0  0  0  0  0  0
   -6.9558   -0.4800    1.0460 C   0  0  0  0  0  0  0  0  0  0  0  0
   -7.1253    0.7900    1.8884 C   0  0  0  0  0  0  0  0  0  0  0  0
   -7.0619    0.4625    3.3492 C   0  0  0  0  0  0  0  0  0  0  0  0
   -5.8807   -0.3664    3.6827 N   0  0  0  0  0  0  0  0  0  0  0  0
   -5.0563   -0.1368    4.7486 C   0  0  0  0  0  0  0  0  0  0  0  0
   -5.2044    0.9617    5.5747 C   0  0  0  0  0  0  0  0  0  0  0  0
   -5.2190    1.8104    6.3747 C   0  0  0  0  0  0  0  0  0  0  0  0
   -5.3222    2.9083    7.2436 C   0  0  0  0  0  0  0  0  0  0  0  0
   -4.4570    2.7250    8.3634 N   0  0  0  0  0  0  0  0  0  0  0  0
   -3.2174    3.3791    8.4401 C   0  0  0  0  0  0  0  0  0  0  0  0
   -4.7008    1.6908    9.3046 C   0  0  0  0  0  0  0  0  0  0  0  0
   -4.9796    4.1753    6.4800 C   0  0  0  0  0  0  0  0  0  0  0  0
   -6.7540    3.0783    7.7256 C   0  0  0  0  0  0  0  0  0  0  0  0
   -4.1246   -0.9305    4.9850 O   0  0  0  0  0  0  0  0  0  0  0  0
   -5.6096   -1.4907    2.8455 C   0  0  0  0  0  0  0  0  0  0  0  0
   -5.6385   -1.1509    1.4133 C   0  0  0  0  0  0  0  0  0  0  0  0
   -6.4862    0.8749   -0.8351 O   0  0  0  0  0  0  0  0  0  0  0  0
   -7.6991   -2.5217   -1.0666 C   0  0  0  0  0  0  0  0  0  0  0  0
   -5.0972   -2.1354   -2.7908 O   0  0  0  0  0  0  0  0  0  0  0  0
   -2.8911    1.1503   -3.7266 C   0  0  0  0  0  0  0  0  0  0  0  0
   -2.9926    1.5548   -2.2401 C   0  0  0  0  0  0  0  0  0  0  0  0
   -2.0284    0.6914   -1.4903 C   0  0  0  0  0  0  0  0  0  0  0  0
   -1.9296    1.0779   -0.1018 N   0  0  0  0  0  0  0  0  0  0  0  0
   -1.6764    2.5065    0.1300 C   0  0  0  0  0  0  0  0  0  0  0  0
   -2.5877    3.3793   -0.7466 C   0  0  0  0  0  0  0  0  0  0  0  0
   -2.5721    2.9404   -2.1442 O   0  0  0  0  0  0  0  0  0  0  0  0
   -3.9159   -0.0591   -6.4160 O   0  0  0  0  0  0  0  0  0  0  0  0
   -1.7920   -1.7784   -7.1040 C   0  0  0  0  0  0  0  0  0  0  0  0
   -0.2702   -1.5832   -7.2749 C   0  0  0  0  0  0  0  0  0  0  0  0
    0.5278   -2.2065   -6.1297 C   0  0  0  0  0  0  0  0  0  0  0  0
    1.8629   -2.8377   -3.7519 O   0  0  0  0  0  0  0  0  0  0  0  0
   -1.2451   -2.1727    1.4673 C   0  0  0  0  0  0  0  0  0  0  0  0
   -0.9416   -1.8208    2.7795 C   0  0  0  0  0  0  0  0  0  0  0  0
   -0.9691   -0.4395    3.1586 C   0  0  0  0  0  0  0  0  0  0  0  0
   -1.3088    0.4897    2.1713 C   0  0  0  0  0  0  0  0  0  0  0  0
   -1.5966    0.1129    0.8552 C   0  0  0  0  0  0  0  0  0  0  0  0
   -1.5872   -1.2435    0.4947 C   0  0  0  0  0  0  0  0  0  0  0  0
   -8.0164   -1.2830    1.3935 F   0  0  0  0  0  0  0  0  0  0  0  0
  1  2  1  0  0  0  0
  2  3  1  0  0  0  0
  2  5  1  0  0  0  0
  3  4  1  0  0  0  0
  5  6  4  0  0  0  0
  5 10  4  0  0  0  0
  6  7  4  0  0  0  0
  7  8  4  0  0  0  0
  8  9  4  0  0  0  0
  9 10  4  0  0  0  0
 10 11  1  0  0  0  0
 11 12  4  0  0  0  0
 11 15  4  0  0  0  0
 12 13  1  0  0  0  0
 12 68  4  0  0  0  0
 13 14  1  0  0  0  0
 15 16  1  0  0  0  0
 15 67  4  0  0  0  0
 16 17  1  0  0  0  0
 17 18  1  0  0  0  0
 17 19  1  0  0  0  0
 17 20  1  0  0  0  0
 20 21  1  0  0  0  0
 21 22  1  0  0  0  0
 22 23  1  0  0  0  0
 22 66  2  0  0  0  0
 23 24  1  0  0  0  0
 23 65  1  0  0  0  0
 24 25  1  0  0  0  0
 25 26  1  0  0  0  0
 25 63  1  0  0  0  0
 26 27  1  0  0  0  0
 26 62  2  0  0  0  0
 27 28  1  0  0  0  0
 27 55  1  0  0  0  0
 28 29  1  0  0  0  0
 29 30  1  0  0  0  0
 29 54  2  0  0  0  0
 30 31  1  0  0  0  0
 30 34  1  0  0  0  0
 31 32  1  0  0  0  0
 31 33  1  0  0  0  0
 34 35  1  0  0  0  0
 34 53  1  0  0  0  0
 35 36  1  0  0  0  0
 35 52  2  0  0  0  0
 36 37  1  0  0  0  0
 36 51  1  0  0  0  0
 36 73  1  0  0  0  0
 37 38  1  0  0  0  0
 38 39  1  0  0  0  0
 39 40  1  0  0  0  0
 39 50  1  0  0  0  0
 40 41  1  0  0  0  0
 40 49  2  0  0  0  0
 41 42  1  0  0  0  0
 42 43  1  0  0  0  0
 43 44  1  0  0  0  0
 43 47  1  0  0  0  0
 43 48  1  0  0  0  0
 44 45  1  0  0  0  0
 44 46  1  0  0  0  0
 50 51  1  0  0  0  0
 55 56  1  0  0  0  0
 56 57  1  0  0  0  0
 56 61  1  0  0  0  0
 57 58  1  0  0  0  0
 58 59  1  0  0  0  0
 58 71  1  0  0  0  0
 59 60  1  0  0  0  0
 60 61  1  0  0  0  0
 63 64  1  0  0  0  0
 64 65  1  0  0  0  0
 67 68  4  0  0  0  0
 67 72  4  0  0  0  0
 68 69  4  0  0  0  0
 69 70  4  0  0  0  0
 70 71  4  0  0  0  0
 71 72  4  0  0  0  0
M  END
$$$$
