mol_ETKDG5_268
  PyMOL3.1          3D                             0

 73 79  0  0  0  0  0  0  0  0999 V2000
   -4.5224   -2.2837    5.1291 C   0  0  0  0  0  0  0  0  0  0  0  0
   -5.0815   -1.8808    3.8297 C   0  0  0  0  0  0  0  0  0  0  0  0
   -5.5040   -2.8943    2.9748 O   0  0  0  0  0  0  0  0  0  0  0  0
   -4.5184   -3.7627    2.4602 C   0  0  0  0  0  0  0  0  0  0  0  0
   -6.1578   -0.8975    3.9525 C   0  0  0  0  0  0  0  0  0  0  0  0
   -7.3221   -1.3030    4.4211 N   0  0  0  0  0  0  0  0  0  0  0  0
   -8.3258   -0.4345    4.6384 C   0  0  0  0  0  0  0  0  0  0  0  0
   -8.1756    0.9301    4.3826 C   0  0  0  0  0  0  0  0  0  0  0  0
   -6.9436    1.3779    3.8928 C   0  0  0  0  0  0  0  0  0  0  0  0
   -5.9422    0.4335    3.6436 C   0  0  0  0  0  0  0  0  0  0  0  0
   -4.6962    0.8672    3.0649 C   0  0  0  0  0  0  0  0  0  0  0  0
   -3.6626    1.3497    3.7991 N   0  0  0  0  0  0  0  0  0  0  0  0
   -3.6024    1.5213    5.2871 C   0  0  0  0  0  0  0  0  0  0  0  0
   -3.7257    2.9241    5.6959 C   0  0  0  0  0  0  0  0  0  0  0  0
   -4.3380    0.7739    1.6902 C   0  0  0  0  0  0  0  0  0  0  0  0
   -5.0935    0.2151    0.5061 C   0  0  0  0  0  0  0  0  0  0  0  0
   -5.9959    1.2591   -0.2829 C   0  0  0  0  0  0  0  0  0  0  0  0
   -7.0082    0.4662   -1.1114 C   0  0  0  0  0  0  0  0  0  0  0  0
   -6.8115    2.1021    0.6181 C   0  0  0  0  0  0  0  0  0  0  0  0
   -5.1553    2.1879   -1.1618 C   0  0  0  0  0  0  0  0  0  0  0  0
   -4.6416    1.6392   -2.4450 O   0  0  0  0  0  0  0  0  0  0  0  0
   -4.9552    2.1770   -3.7319 C   0  0  0  0  0  0  0  0  0  0  0  0
   -4.1268    1.7079   -4.9101 C   0  0  0  0  0  0  0  0  0  0  0  0
   -3.5580    0.4383   -4.6425 N   0  0  0  0  0  0  0  0  0  0  0  0
   -2.7563   -0.1229   -5.6356 N   0  0  0  0  0  0  0  0  0  0  0  0
   -1.4856   -0.5266   -5.3737 C   0  0  0  0  0  0  0  0  0  0  0  0
   -0.9712   -0.3983   -3.9783 C   0  0  0  0  0  0  0  0  0  0  0  0
   -0.2904   -1.6021   -3.5649 N   0  0  0  0  0  0  0  0  0  0  0  0
   -0.9008   -2.5671   -2.8651 C   0  0  0  0  0  0  0  0  0  0  0  0
   -0.0371   -3.6773   -2.3975 C   0  0  0  0  0  0  0  0  0  0  0  0
   -0.1228   -5.0011   -3.2167 C   0  0  0  0  0  0  0  0  0  0  0  0
   -0.2537   -4.7925   -4.6742 C   0  0  0  0  0  0  0  0  0  0  0  0
    1.0100   -5.9290   -2.8618 C   0  0  0  0  0  0  0  0  0  0  0  0
   -0.3454   -3.8742   -0.9909 N   0  0  0  0  0  0  0  0  0  0  0  0
    0.3299   -3.1033   -0.0861 C   0  0  0  0  0  0  0  0  0  0  0  0
    0.1706   -3.1546    1.4039 C   0  0  0  0  0  0  0  0  0  0  0  0
    1.5246   -2.9970    2.0865 C   0  0  0  0  0  0  0  0  0  0  0  0
    1.3574   -2.9122    3.5686 C   0  0  0  0  0  0  0  0  0  0  0  0
    0.3845   -1.8557    3.8771 N   0  0  0  0  0  0  0  0  0  0  0  0
    0.7128   -0.7676    4.6283 C   0  0  0  0  0  0  0  0  0  0  0  0
    1.9823   -0.2512    4.5692 C   0  0  0  0  0  0  0  0  0  0  0  0
    3.0461    0.1778    4.5646 C   0  0  0  0  0  0  0  0  0  0  0  0
    4.4071    0.5052    4.2992 C   0  0  0  0  0  0  0  0  0  0  0  0
    5.1828   -0.6905    4.3946 N   0  0  0  0  0  0  0  0  0  0  0  0
    5.3886   -1.4891    3.2666 C   0  0  0  0  0  0  0  0  0  0  0  0
    5.4779   -1.2430    5.6588 C   0  0  0  0  0  0  0  0  0  0  0  0
    4.9128    1.5371    5.2545 C   0  0  0  0  0  0  0  0  0  0  0  0
    4.5292    1.0944    2.9014 C   0  0  0  0  0  0  0  0  0  0  0  0
   -0.1461   -0.1873    5.3028 O   0  0  0  0  0  0  0  0  0  0  0  0
   -0.9191   -1.9837    3.2935 C   0  0  0  0  0  0  0  0  0  0  0  0
   -0.7638   -2.0210    1.8005 C   0  0  0  0  0  0  0  0  0  0  0  0
    1.1417   -2.2757   -0.5411 O   0  0  0  0  0  0  0  0  0  0  0  0
   -1.4332   -4.7887   -0.6254 C   0  0  0  0  0  0  0  0  0  0  0  0
   -2.0666   -2.4441   -2.5397 O   0  0  0  0  0  0  0  0  0  0  0  0
   -0.0031    0.8326   -3.8527 C   0  0  0  0  0  0  0  0  0  0  0  0
    0.5855    1.0378   -2.4360 C   0  0  0  0  0  0  0  0  0  0  0  0
   -0.4692    1.6082   -1.5726 C   0  0  0  0  0  0  0  0  0  0  0  0
    0.0112    1.9029   -0.2511 N   0  0  0  0  0  0  0  0  0  0  0  0
    1.2329    2.7033   -0.1893 C   0  0  0  0  0  0  0  0  0  0  0  0
    2.2725    2.2075   -1.1980 C   0  0  0  0  0  0  0  0  0  0  0  0
    1.6919    1.9700   -2.5240 O   0  0  0  0  0  0  0  0  0  0  0  0
   -0.7381   -0.9800   -6.2577 O   0  0  0  0  0  0  0  0  0  0  0  0
   -3.3873   -0.3071   -6.9350 C   0  0  0  0  0  0  0  0  0  0  0  0
   -4.0529    1.0089   -7.3565 C   0  0  0  0  0  0  0  0  0  0  0  0
   -4.9207    1.6121   -6.2459 C   0  0  0  0  0  0  0  0  0  0  0  0
   -5.8805    2.9868   -3.9500 O   0  0  0  0  0  0  0  0  0  0  0  0
   -3.0272    1.2689    1.6645 C   0  0  0  0  0  0  0  0  0  0  0  0
   -2.6502    1.6106    2.9644 C   0  0  0  0  0  0  0  0  0  0  0  0
   -1.3339    2.1083    3.2033 C   0  0  0  0  0  0  0  0  0  0  0  0
   -0.4751    2.1889    2.1082 C   0  0  0  0  0  0  0  0  0  0  0  0
   -0.8739    1.8299    0.8232 C   0  0  0  0  0  0  0  0  0  0  0  0
   -2.1683    1.3669    0.5893 C   0  0  0  0  0  0  0  0  0  0  0  0
   -0.3511   -4.3404    1.8456 F   0  0  0  0  0  0  0  0  0  0  0  0
  1  2  1  0  0  0  0
  2  3  1  0  0  0  0
  2  5  1  0  0  0  0
  3  4  1  0  0  0  0
  5  6  4  0  0  0  0
  5 10  4  0  0  0  0
  6  7  4  0  0  0  0
  7  8  4  0  0  0  0
  8  9  4  0  0  0  0
  9 10  4  0  0  0  0
 10 11  1  0  0  0  0
 11 12  4  0  0  0  0
 11 15  4  0  0  0  0
 12 13  1  0  0  0  0
 12 68  4  0  0  0  0
 13 14  1  0  0  0  0
 15 16  1  0  0  0  0
 15 67  4  0  0  0  0
 16 17  1  0  0  0  0
 17 18  1  0  0  0  0
 17 19  1  0  0  0  0
 17 20  1  0  0  0  0
 20 21  1  0  0  0  0
 21 22  1  0  0  0  0
 22 23  1  0  0  0  0
 22 66  2  0  0  0  0
 23 24  1  0  0  0  0
 23 65  1  0  0  0  0
 24 25  1  0  0  0  0
 25 26  1  0  0  0  0
 25 63  1  0  0  0  0
 26 27  1  0  0  0  0
 26 62  2  0  0  0  0
 27 28  1  0  0  0  0
 27 55  1  0  0  0  0
 28 29  1  0  0  0  0
 29 30  1  0  0  0  0
 29 54  2  0  0  0  0
 30 31  1  0  0  0  0
 30 34  1  0  0  0  0
 31 32  1  0  0  0  0
 31 33  1  0  0  0  0
 34 35  1  0  0  0  0
 34 53  1  0  0  0  0
 35 36  1  0  0  0  0
 35 52  2  0  0  0  0
 36 37  1  0  0  0  0
 36 51  1  0  0  0  0
 36 73  1  0  0  0  0
 37 38  1  0  0  0  0
 38 39  1  0  0  0  0
 39 40  1  0  0  0  0
 39 50  1  0  0  0  0
 40 41  1  0  0  0  0
 40 49  2  0  0  0  0
 41 42  1  0  0  0  0
 42 43  1  0  0  0  0
 43 44  1  0  0  0  0
 43 47  1  0  0  0  0
 43 48  1  0  0  0  0
 44 45  1  0  0  0  0
 44 46  1  0  0  0  0
 50 51  1  0  0  0  0
 55 56  1  0  0  0  0
 56 57  1  0  0  0  0
 56 61  1  0  0  0  0
 57 58  1  0  0  0  0
 58 59  1  0  0  0  0
 58 71  1  0  0  0  0
 59 60  1  0  0  0  0
 60 61  1  0  0  0  0
 63 64  1  0  0  0  0
 64 65  1  0  0  0  0
 67 68  4  0  0  0  0
 67 72  4  0  0  0  0
 68 69  4  0  0  0  0
 69 70  4  0  0  0  0
 70 71  4  0  0  0  0
 71 72  4  0  0  0  0
M  END
$$$$
