mol_ETKDG1_64
  PyMOL3.1          3D                             0

 73 79  0  0  0  0  0  0  0  0999 V2000
    4.8942   -3.4530    1.3735 C   0  0  0  0  0  0  0  0  0  0  0  0
    4.6174   -2.0365    1.7131 C   0  0  0  0  0  0  0  0  0  0  0  0
    4.2366   -1.7955    3.0484 O   0  0  0  0  0  0  0  0  0  0  0  0
    2.9513   -2.2053    3.4382 C   0  0  0  0  0  0  0  0  0  0  0  0
    5.7660   -1.1501    1.4378 C   0  0  0  0  0  0  0  0  0  0  0  0
    6.8394   -1.2810    2.1955 N   0  0  0  0  0  0  0  0  0  0  0  0
    7.9516   -0.5534    1.9673 C   0  0  0  0  0  0  0  0  0  0  0  0
    8.0214    0.3663    0.9189 C   0  0  0  0  0  0  0  0  0  0  0  0
    6.9008    0.5150    0.0966 C   0  0  0  0  0  0  0  0  0  0  0  0
    5.7498   -0.2296    0.3998 C   0  0  0  0  0  0  0  0  0  0  0  0
    4.5811   -0.0293   -0.4231 C   0  0  0  0  0  0  0  0  0  0  0  0
    4.4126   -0.6344   -1.6225 N   0  0  0  0  0  0  0  0  0  0  0  0
    5.3285   -1.6277   -2.2711 C   0  0  0  0  0  0  0  0  0  0  0  0
    5.9394   -1.1657   -3.5053 C   0  0  0  0  0  0  0  0  0  0  0  0
    3.4375    0.7481   -0.0906 C   0  0  0  0  0  0  0  0  0  0  0  0
    3.0815    1.5007    1.1656 C   0  0  0  0  0  0  0  0  0  0  0  0
    3.5658    3.0133    1.2270 C   0  0  0  0  0  0  0  0  0  0  0  0
    5.0624    3.1544    1.0790 C   0  0  0  0  0  0  0  0  0  0  0  0
    3.2503    3.5369    2.6035 C   0  0  0  0  0  0  0  0  0  0  0  0
    2.8906    3.8528    0.1523 C   0  0  0  0  0  0  0  0  0  0  0  0
    1.5200    4.3816    0.5046 O   0  0  0  0  0  0  0  0  0  0  0  0
    1.1582    5.7668    0.4512 C   0  0  0  0  0  0  0  0  0  0  0  0
   -0.2887    6.1545    0.6941 C   0  0  0  0  0  0  0  0  0  0  0  0
   -0.9923    5.1133    1.3654 N   0  0  0  0  0  0  0  0  0  0  0  0
   -2.3331    5.3378    1.6582 N   0  0  0  0  0  0  0  0  0  0  0  0
   -3.2929    4.4516    1.2621 C   0  0  0  0  0  0  0  0  0  0  0  0
   -2.8640    3.2255    0.5156 C   0  0  0  0  0  0  0  0  0  0  0  0
   -3.6356    2.0605    0.8737 N   0  0  0  0  0  0  0  0  0  0  0  0
   -3.1778    1.0722    1.6490 C   0  0  0  0  0  0  0  0  0  0  0  0
   -4.0402   -0.1482    1.7553 C   0  0  0  0  0  0  0  0  0  0  0  0
   -4.8599   -0.2393    3.0741 C   0  0  0  0  0  0  0  0  0  0  0  0
   -5.9804   -1.2236    3.0088 C   0  0  0  0  0  0  0  0  0  0  0  0
   -5.2371    1.0694    3.6678 C   0  0  0  0  0  0  0  0  0  0  0  0
   -3.1511   -1.3051    1.5919 N   0  0  0  0  0  0  0  0  0  0  0  0
   -2.7801   -1.6902    0.3151 C   0  0  0  0  0  0  0  0  0  0  0  0
   -1.7987   -2.7979    0.0128 C   0  0  0  0  0  0  0  0  0  0  0  0
   -0.4317   -2.2846    0.3952 C   0  0  0  0  0  0  0  0  0  0  0  0
    0.6023   -3.3020    0.2163 C   0  0  0  0  0  0  0  0  0  0  0  0
    0.5887   -3.8465   -1.1362 N   0  0  0  0  0  0  0  0  0  0  0  0
    1.7779   -4.0101   -1.7873 C   0  0  0  0  0  0  0  0  0  0  0  0
    1.8585   -4.6169   -3.0319 C   0  0  0  0  0  0  0  0  0  0  0  0
    2.1064   -5.2116   -3.9988 C   0  0  0  0  0  0  0  0  0  0  0  0
    2.2328   -5.9719   -5.1645 C   0  0  0  0  0  0  0  0  0  0  0  0
    3.1041   -7.0909   -4.9062 N   0  0  0  0  0  0  0  0  0  0  0  0
    4.4943   -6.8708   -4.7803 C   0  0  0  0  0  0  0  0  0  0  0  0
    2.5851   -8.2650   -4.3168 C   0  0  0  0  0  0  0  0  0  0  0  0
    0.8626   -6.4419   -5.6170 C   0  0  0  0  0  0  0  0  0  0  0  0
    2.8007   -5.1301   -6.2997 C   0  0  0  0  0  0  0  0  0  0  0  0
    2.8290   -3.6220   -1.2655 O   0  0  0  0  0  0  0  0  0  0  0  0
   -0.6890   -4.2085   -1.6980 C   0  0  0  0  0  0  0  0  0  0  0  0
   -1.7457   -3.2073   -1.4717 C   0  0  0  0  0  0  0  0  0  0  0  0
   -3.2704   -1.0566   -0.6359 O   0  0  0  0  0  0  0  0  0  0  0  0
   -2.5828   -1.9458    2.7903 C   0  0  0  0  0  0  0  0  0  0  0  0
   -2.0566    1.1333    2.1284 O   0  0  0  0  0  0  0  0  0  0  0  0
   -3.0126    3.4814   -1.0338 C   0  0  0  0  0  0  0  0  0  0  0  0
   -2.5879    2.2933   -1.9304 C   0  0  0  0  0  0  0  0  0  0  0  0
   -1.1107    2.3186   -2.0025 C   0  0  0  0  0  0  0  0  0  0  0  0
   -0.6047    1.2914   -2.8733 N   0  0  0  0  0  0  0  0  0  0  0  0
   -1.1933    1.2781   -4.2229 C   0  0  0  0  0  0  0  0  0  0  0  0
   -2.7279    1.3846   -4.1422 C   0  0  0  0  0  0  0  0  0  0  0  0
   -3.1461    2.4825   -3.2553 O   0  0  0  0  0  0  0  0  0  0  0  0
   -4.4992    4.6569    1.4661 O   0  0  0  0  0  0  0  0  0  0  0  0
   -2.6175    6.5251    2.4586 C   0  0  0  0  0  0  0  0  0  0  0  0
   -1.9088    7.7453    1.8402 C   0  0  0  0  0  0  0  0  0  0  0  0
   -0.4386    7.4646    1.5206 C   0  0  0  0  0  0  0  0  0  0  0  0
    1.9644    6.6910    0.2130 O   0  0  0  0  0  0  0  0  0  0  0  0
    2.5978    0.5964   -1.2094 C   0  0  0  0  0  0  0  0  0  0  0  0
    3.2207   -0.2555   -2.1123 C   0  0  0  0  0  0  0  0  0  0  0  0
    2.5424   -0.6172   -3.3224 C   0  0  0  0  0  0  0  0  0  0  0  0
    1.2711   -0.0908   -3.5289 C   0  0  0  0  0  0  0  0  0  0  0  0
    0.6656    0.7749   -2.6194 C   0  0  0  0  0  0  0  0  0  0  0  0
    1.3294    1.1134   -1.4225 C   0  0  0  0  0  0  0  0  0  0  0  0
   -2.1466   -3.9444    0.6979 F   0  0  0  0  0  0  0  0  0  0  0  0
  1  2  1  0  0  0  0
  2  3  1  0  0  0  0
  2  5  1  0  0  0  0
  3  4  1  0  0  0  0
  5  6  4  0  0  0  0
  5 10  4  0  0  0  0
  6  7  4  0  0  0  0
  7  8  4  0  0  0  0
  8  9  4  0  0  0  0
  9 10  4  0  0  0  0
 10 11  1  0  0  0  0
 11 12  4  0  0  0  0
 11 15  4  0  0  0  0
 12 13  1  0  0  0  0
 12 68  4  0  0  0  0
 13 14  1  0  0  0  0
 15 16  1  0  0  0  0
 15 67  4  0  0  0  0
 16 17  1  0  0  0  0
 17 18  1  0  0  0  0
 17 19  1  0  0  0  0
 17 20  1  0  0  0  0
 20 21  1  0  0  0  0
 21 22  1  0  0  0  0
 22 23  1  0  0  0  0
 22 66  2  0  0  0  0
 23 24  1  0  0  0  0
 23 65  1  0  0  0  0
 24 25  1  0  0  0  0
 25 26  1  0  0  0  0
 25 63  1  0  0  0  0
 26 27  1  0  0  0  0
 26 62  2  0  0  0  0
 27 28  1  0  0  0  0
 27 55  1  0  0  0  0
 28 29  1  0  0  0  0
 29 30  1  0  0  0  0
 29 54  2  0  0  0  0
 30 31  1  0  0  0  0
 30 34  1  0  0  0  0
 31 32  1  0  0  0  0
 31 33  1  0  0  0  0
 34 35  1  0  0  0  0
 34 53  1  0  0  0  0
 35 36  1  0  0  0  0
 35 52  2  0  0  0  0
 36 37  1  0  0  0  0
 36 51  1  0  0  0  0
 36 73  1  0  0  0  0
 37 38  1  0  0  0  0
 38 39  1  0  0  0  0
 39 40  1  0  0  0  0
 39 50  1  0  0  0  0
 40 41  1  0  0  0  0
 40 49  2  0  0  0  0
 41 42  1  0  0  0  0
 42 43  1  0  0  0  0
 43 44  1  0  0  0  0
 43 47  1  0  0  0  0
 43 48  1  0  0  0  0
 44 45  1  0  0  0  0
 44 46  1  0  0  0  0
 50 51  1  0  0  0  0
 55 56  1  0  0  0  0
 56 57  1  0  0  0  0
 56 61  1  0  0  0  0
 57 58  1  0  0  0  0
 58 59  1  0  0  0  0
 58 71  1  0  0  0  0
 59 60  1  0  0  0  0
 60 61  1  0  0  0  0
 63 64  1  0  0  0  0
 64 65  1  0  0  0  0
 67 68  4  0  0  0  0
 67 72  4  0  0  0  0
 68 69  4  0  0  0  0
 69 70  4  0  0  0  0
 70 71  4  0  0  0  0
 71 72  4  0  0  0  0
M  END
$$$$
