mol_ETKDG0_343
  PyMOL3.1          3D                             0

 73 79  0  0  0  0  0  0  0  0999 V2000
   -3.4677   -1.4467   -7.0454 C   0  0  0  0  0  0  0  0  0  0  0  0
   -2.0886   -1.5710   -6.5130 C   0  0  0  0  0  0  0  0  0  0  0  0
   -1.5165   -2.8754   -6.6556 O   0  0  0  0  0  0  0  0  0  0  0  0
   -1.9253   -3.8638   -5.7491 C   0  0  0  0  0  0  0  0  0  0  0  0
   -1.1396   -0.6186   -7.1402 C   0  0  0  0  0  0  0  0  0  0  0  0
   -0.7110   -0.9009   -8.3584 N   0  0  0  0  0  0  0  0  0  0  0  0
    0.1196   -0.0809   -9.0224 C   0  0  0  0  0  0  0  0  0  0  0  0
    0.5605    1.1201   -8.4634 C   0  0  0  0  0  0  0  0  0  0  0  0
    0.1136    1.4536   -7.1813 C   0  0  0  0  0  0  0  0  0  0  0  0
   -0.7279    0.5652   -6.5061 C   0  0  0  0  0  0  0  0  0  0  0  0
   -1.1498    0.9097   -5.1641 C   0  0  0  0  0  0  0  0  0  0  0  0
   -2.1846    1.7468   -4.8934 N   0  0  0  0  0  0  0  0  0  0  0  0
   -3.0357    2.5243   -5.8726 C   0  0  0  0  0  0  0  0  0  0  0  0
   -4.3802    1.9546   -6.1021 C   0  0  0  0  0  0  0  0  0  0  0  0
   -0.5846    0.4049   -3.9545 C   0  0  0  0  0  0  0  0  0  0  0  0
    0.5581   -0.5327   -3.6903 C   0  0  0  0  0  0  0  0  0  0  0  0
    2.0108    0.1313   -3.5856 C   0  0  0  0  0  0  0  0  0  0  0  0
    2.5696    0.4410   -4.9701 C   0  0  0  0  0  0  0  0  0  0  0  0
    2.9112   -0.9157   -3.0226 C   0  0  0  0  0  0  0  0  0  0  0  0
    2.1137    1.4218   -2.7191 C   0  0  0  0  0  0  0  0  0  0  0  0
    2.5524    1.2328   -1.2838 O   0  0  0  0  0  0  0  0  0  0  0  0
    3.4992    2.0386   -0.5840 C   0  0  0  0  0  0  0  0  0  0  0  0
    3.7997    1.7301    0.8888 C   0  0  0  0  0  0  0  0  0  0  0  0
    3.5020    0.3540    1.1600 N   0  0  0  0  0  0  0  0  0  0  0  0
    3.7497   -0.1347    2.4399 N   0  0  0  0  0  0  0  0  0  0  0  0
    2.7669   -0.7345    3.1808 C   0  0  0  0  0  0  0  0  0  0  0  0
    1.3854   -0.8183    2.6076 C   0  0  0  0  0  0  0  0  0  0  0  0
    0.7375   -2.0729    2.9369 N   0  0  0  0  0  0  0  0  0  0  0  0
    0.5909   -3.0814    2.0584 C   0  0  0  0  0  0  0  0  0  0  0  0
   -0.2656   -4.2263    2.5033 C   0  0  0  0  0  0  0  0  0  0  0  0
    0.5315   -5.5109    2.9059 C   0  0  0  0  0  0  0  0  0  0  0  0
   -0.2878   -6.4683    3.7061 C   0  0  0  0  0  0  0  0  0  0  0  0
    1.8717   -5.2291    3.5060 C   0  0  0  0  0  0  0  0  0  0  0  0
   -1.2055   -4.4796    1.4033 N   0  0  0  0  0  0  0  0  0  0  0  0
   -2.3001   -3.6427    1.2720 C   0  0  0  0  0  0  0  0  0  0  0  0
   -3.2943   -3.7017    0.1374 C   0  0  0  0  0  0  0  0  0  0  0  0
   -2.5913   -3.1648   -1.0937 C   0  0  0  0  0  0  0  0  0  0  0  0
   -3.4929   -3.1915   -2.2801 C   0  0  0  0  0  0  0  0  0  0  0  0
   -4.7040   -2.4151   -1.9857 N   0  0  0  0  0  0  0  0  0  0  0  0
   -5.0769   -1.3994   -2.8333 C   0  0  0  0  0  0  0  0  0  0  0  0
   -6.1070   -0.5024   -2.5426 C   0  0  0  0  0  0  0  0  0  0  0  0
   -6.9883    0.2682   -2.4859 C   0  0  0  0  0  0  0  0  0  0  0  0
   -8.0941    1.1184   -2.2777 C   0  0  0  0  0  0  0  0  0  0  0  0
   -9.1871    0.6921   -3.1067 N   0  0  0  0  0  0  0  0  0  0  0  0
   -9.1323    0.9016   -4.4979 C   0  0  0  0  0  0  0  0  0  0  0  0
  -10.1614   -0.2094   -2.6266 C   0  0  0  0  0  0  0  0  0  0  0  0
   -7.7167    2.5580   -2.5951 C   0  0  0  0  0  0  0  0  0  0  0  0
   -8.4921    1.0906   -0.8206 C   0  0  0  0  0  0  0  0  0  0  0  0
   -4.4735   -1.2346   -3.8971 O   0  0  0  0  0  0  0  0  0  0  0  0
   -5.4224   -2.7750   -0.7871 C   0  0  0  0  0  0  0  0  0  0  0  0
   -4.5398   -2.8332    0.4002 C   0  0  0  0  0  0  0  0  0  0  0  0
   -2.4513   -2.7615    2.1412 O   0  0  0  0  0  0  0  0  0  0  0  0
   -0.8827   -5.5122    0.4068 C   0  0  0  0  0  0  0  0  0  0  0  0
    1.0323   -2.9832    0.9249 O   0  0  0  0  0  0  0  0  0  0  0  0
    0.5247    0.3850    3.1536 C   0  0  0  0  0  0  0  0  0  0  0  0
   -0.9158    0.4839    2.5869 C   0  0  0  0  0  0  0  0  0  0  0  0
   -0.8284    1.0822    1.2253 C   0  0  0  0  0  0  0  0  0  0  0  0
   -2.1390    1.3164    0.6513 N   0  0  0  0  0  0  0  0  0  0  0  0
   -3.0342    2.1166    1.5268 C   0  0  0  0  0  0  0  0  0  0  0  0
   -3.0481    1.5350    2.9480 C   0  0  0  0  0  0  0  0  0  0  0  0
   -1.6791    1.3519    3.4580 O   0  0  0  0  0  0  0  0  0  0  0  0
    2.9785   -1.1699    4.3216 O   0  0  0  0  0  0  0  0  0  0  0  0
    5.1378   -0.0147    2.8931 C   0  0  0  0  0  0  0  0  0  0  0  0
    5.6016    1.4476    2.6925 C   0  0  0  0  0  0  0  0  0  0  0  0
    5.2996    1.9664    1.2754 C   0  0  0  0  0  0  0  0  0  0  0  0
    4.1035    2.9815   -1.1234 O   0  0  0  0  0  0  0  0  0  0  0  0
   -1.3748    0.9807   -2.9475 C   0  0  0  0  0  0  0  0  0  0  0  0
   -2.3501    1.7712   -3.5563 C   0  0  0  0  0  0  0  0  0  0  0  0
   -3.3096    2.4398   -2.7334 C   0  0  0  0  0  0  0  0  0  0  0  0
   -3.2083    2.2613   -1.3443 C   0  0  0  0  0  0  0  0  0  0  0  0
   -2.2159    1.4671   -0.7498 C   0  0  0  0  0  0  0  0  0  0  0  0
   -1.2776    0.8041   -1.5651 C   0  0  0  0  0  0  0  0  0  0  0  0
   -3.7448   -4.9999   -0.0468 F   0  0  0  0  0  0  0  0  0  0  0  0
  1  2  1  0  0  0  0
  2  3  1  0  0  0  0
  2  5  1  0  0  0  0
  3  4  1  0  0  0  0
  5  6  4  0  0  0  0
  5 10  4  0  0  0  0
  6  7  4  0  0  0  0
  7  8  4  0  0  0  0
  8  9  4  0  0  0  0
  9 10  4  0  0  0  0
 10 11  1  0  0  0  0
 11 12  4  0  0  0  0
 11 15  4  0  0  0  0
 12 13  1  0  0  0  0
 12 68  4  0  0  0  0
 13 14  1  0  0  0  0
 15 16  1  0  0  0  0
 15 67  4  0  0  0  0
 16 17  1  0  0  0  0
 17 18  1  0  0  0  0
 17 19  1  0  0  0  0
 17 20  1  0  0  0  0
 20 21  1  0  0  0  0
 21 22  1  0  0  0  0
 22 23  1  0  0  0  0
 22 66  2  0  0  0  0
 23 24  1  0  0  0  0
 23 65  1  0  0  0  0
 24 25  1  0  0  0  0
 25 26  1  0  0  0  0
 25 63  1  0  0  0  0
 26 27  1  0  0  0  0
 26 62  2  0  0  0  0
 27 28  1  0  0  0  0
 27 55  1  0  0  0  0
 28 29  1  0  0  0  0
 29 30  1  0  0  0  0
 29 54  2  0  0  0  0
 30 31  1  0  0  0  0
 30 34  1  0  0  0  0
 31 32  1  0  0  0  0
 31 33  1  0  0  0  0
 34 35  1  0  0  0  0
 34 53  1  0  0  0  0
 35 36  1  0  0  0  0
 35 52  2  0  0  0  0
 36 37  1  0  0  0  0
 36 51  1  0  0  0  0
 36 73  1  0  0  0  0
 37 38  1  0  0  0  0
 38 39  1  0  0  0  0
 39 40  1  0  0  0  0
 39 50  1  0  0  0  0
 40 41  1  0  0  0  0
 40 49  2  0  0  0  0
 41 42  1  0  0  0  0
 42 43  1  0  0  0  0
 43 44  1  0  0  0  0
 43 47  1  0  0  0  0
 43 48  1  0  0  0  0
 44 45  1  0  0  0  0
 44 46  1  0  0  0  0
 50 51  1  0  0  0  0
 55 56  1  0  0  0  0
 56 57  1  0  0  0  0
 56 61  1  0  0  0  0
 57 58  1  0  0  0  0
 58 59  1  0  0  0  0
 58 71  1  0  0  0  0
 59 60  1  0  0  0  0
 60 61  1  0  0  0  0
 63 64  1  0  0  0  0
 64 65  1  0  0  0  0
 67 68  4  0  0  0  0
 67 72  4  0  0  0  0
 68 69  4  0  0  0  0
 69 70  4  0  0  0  0
 70 71  4  0  0  0  0
 71 72  4  0  0  0  0
M  END
$$$$
