mol_bioactive_12
  PyMOL3.1          3D                             0

 73 79  0  0  0  0  0  0  0  0999 V2000
   -4.3585    2.0717   10.9113 C   0  0  0  0  0  0  0  0  0  0  0  0
   -3.1356    2.2830   10.1050 C   0  0  0  0  0  0  0  0  0  0  0  0
   -1.9756    2.6562   10.8188 O   0  0  0  0  0  0  0  0  0  0  0  0
   -1.4070    1.7250   11.6970 C   0  0  0  0  0  0  0  0  0  0  0  0
   -3.3144    3.2825    9.0279 C   0  0  0  0  0  0  0  0  0  0  0  0
   -3.3037    4.5644    9.3600 N   0  0  0  0  0  0  0  0  0  0  0  0
   -3.4872    5.5347    8.4418 C   0  0  0  0  0  0  0  0  0  0  0  0
   -3.7140    5.2382    7.1068 C   0  0  0  0  0  0  0  0  0  0  0  0
   -3.7525    3.9050    6.7438 C   0  0  0  0  0  0  0  0  0  0  0  0
   -3.5437    2.9179    7.7215 C   0  0  0  0  0  0  0  0  0  0  0  0
   -3.5448    1.5514    7.2700 C   0  0  0  0  0  0  0  0  0  0  0  0
   -4.6571    0.8325    6.9979 N   0  0  0  0  0  0  0  0  0  0  0  0
   -6.0734    1.2368    7.2281 C   0  0  0  0  0  0  0  0  0  0  0  0
   -6.6584    0.5792    8.4270 C   0  0  0  0  0  0  0  0  0  0  0  0
   -2.4107    0.7793    6.9798 C   0  0  0  0  0  0  0  0  0  0  0  0
   -1.0492    1.0531    7.3045 C   0  0  0  0  0  0  0  0  0  0  0  0
   -0.1199    1.8018    6.3851 C   0  0  0  0  0  0  0  0  0  0  0  0
    0.2555    3.1764    6.9275 C   0  0  0  0  0  0  0  0  0  0  0  0
   -0.6017    1.9920    4.9910 C   0  0  0  0  0  0  0  0  0  0  0  0
    1.0036    1.0113    6.4514 C   0  0  0  0  0  0  0  0  0  0  0  0
    1.4949    0.1447    5.3608 O   0  0  0  0  0  0  0  0  0  0  0  0
    2.5386   -0.7965    5.5726 C   0  0  0  0  0  0  0  0  0  0  0  0
    3.1599   -1.4503    4.4082 C   0  0  0  0  0  0  0  0  0  0  0  0
    2.4826   -1.1208    3.1997 N   0  0  0  0  0  0  0  0  0  0  0  0
    3.0251   -1.6330    2.0387 N   0  0  0  0  0  0  0  0  0  0  0  0
    2.2666   -2.3563    1.1800 C   0  0  0  0  0  0  0  0  0  0  0  0
    0.8050   -2.5822    1.4637 C   0  0  0  0  0  0  0  0  0  0  0  0
    0.0709   -2.5697    0.1899 N   0  0  0  0  0  0  0  0  0  0  0  0
   -0.4391   -1.4863   -0.3994 C   0  0  0  0  0  0  0  0  0  0  0  0
   -1.1762   -1.6666   -1.6973 C   0  0  0  0  0  0  0  0  0  0  0  0
   -0.3993   -1.2826   -2.9902 C   0  0  0  0  0  0  0  0  0  0  0  0
   -1.0488   -1.7852   -4.2435 C   0  0  0  0  0  0  0  0  0  0  0  0
    1.0558   -1.5524   -2.9254 C   0  0  0  0  0  0  0  0  0  0  0  0
   -2.3891   -0.8981   -1.5996 N   0  0  0  0  0  0  0  0  0  0  0  0
   -3.4717   -1.4842   -1.0493 C   0  0  0  0  0  0  0  0  0  0  0  0
   -4.7414   -0.7710   -0.7914 C   0  0  0  0  0  0  0  0  0  0  0  0
   -4.5287   -0.0009    0.4761 C   0  0  0  0  0  0  0  0  0  0  0  0
   -5.6811    0.7726    0.8347 C   0  0  0  0  0  0  0  0  0  0  0  0
   -6.8671   -0.0573    0.8465 N   0  0  0  0  0  0  0  0  0  0  0  0
   -7.7006    0.0086    1.8929 C   0  0  0  0  0  0  0  0  0  0  0  0
   -8.8830   -0.6703    1.8736 C   0  0  0  0  0  0  0  0  0  0  0  0
   -9.9319   -1.0914    1.9311 C   0  0  0  0  0  0  0  0  0  0  0  0
  -11.1778   -1.6943    1.8333 C   0  0  0  0  0  0  0  0  0  0  0  0
  -12.1770   -0.6871    1.6621 N   0  0  0  0  0  0  0  0  0  0  0  0
  -12.5489    0.1078    2.7655 C   0  0  0  0  0  0  0  0  0  0  0  0
  -12.5891   -0.2716    0.3844 C   0  0  0  0  0  0  0  0  0  0  0  0
  -11.4538   -2.5090    3.0887 C   0  0  0  0  0  0  0  0  0  0  0  0
  -11.1925   -2.6718    0.6766 C   0  0  0  0  0  0  0  0  0  0  0  0
   -7.4116    0.6782    2.8855 O   0  0  0  0  0  0  0  0  0  0  0  0
   -7.1086   -0.9012   -0.2858 C   0  0  0  0  0  0  0  0  0  0  0  0
   -5.9513   -1.6849   -0.6559 C   0  0  0  0  0  0  0  0  0  0  0  0
   -3.3729   -2.6711   -0.7042 O   0  0  0  0  0  0  0  0  0  0  0  0
   -2.3601    0.5307   -1.9898 C   0  0  0  0  0  0  0  0  0  0  0  0
   -0.3978   -0.4253    0.1954 O   0  0  0  0  0  0  0  0  0  0  0  0
    0.6562   -3.9653    2.2002 C   0  0  0  0  0  0  0  0  0  0  0  0
   -0.4096   -4.3404    3.2473 C   0  0  0  0  0  0  0  0  0  0  0  0
   -1.1840   -3.2140    3.7587 C   0  0  0  0  0  0  0  0  0  0  0  0
   -2.3039   -3.5523    4.6002 N   0  0  0  0  0  0  0  0  0  0  0  0
   -2.8390   -4.8708    4.5841 C   0  0  0  0  0  0  0  0  0  0  0  0
   -2.2037   -5.8636    3.6870 C   0  0  0  0  0  0  0  0  0  0  0  0
   -1.2408   -5.3824    2.7201 O   0  0  0  0  0  0  0  0  0  0  0  0
    2.7771   -2.8794    0.1790 O   0  0  0  0  0  0  0  0  0  0  0  0
    4.4218   -1.3003    1.7843 C   0  0  0  0  0  0  0  0  0  0  0  0
    5.2648   -1.6293    3.0215 C   0  0  0  0  0  0  0  0  0  0  0  0
    4.6497   -1.0843    4.2910 C   0  0  0  0  0  0  0  0  0  0  0  0
    3.0439   -1.1619    6.6771 O   0  0  0  0  0  0  0  0  0  0  0  0
   -2.9010   -0.4139    6.4260 C   0  0  0  0  0  0  0  0  0  0  0  0
   -4.2778   -0.3526    6.4868 C   0  0  0  0  0  0  0  0  0  0  0  0
   -5.0465   -1.4598    5.9933 C   0  0  0  0  0  0  0  0  0  0  0  0
   -4.3485   -2.5249    5.4133 C   0  0  0  0  0  0  0  0  0  0  0  0
   -2.9539   -2.5327    5.2927 C   0  0  0  0  0  0  0  0  0  0  0  0
   -2.2074   -1.4767    5.8400 C   0  0  0  0  0  0  0  0  0  0  0  0
   -5.0794    0.0611   -1.8394 F   0  0  0  0  0  0  0  0  0  0  0  0
  1  2  1  0  0  0  0
  2  3  1  0  0  0  0
  2  5  1  0  0  0  0
  3  4  1  0  0  0  0
  5  6  4  0  0  0  0
  5 10  4  0  0  0  0
  6  7  4  0  0  0  0
  7  8  4  0  0  0  0
  8  9  4  0  0  0  0
  9 10  4  0  0  0  0
 10 11  1  0  0  0  0
 11 12  4  0  0  0  0
 11 15  4  0  0  0  0
 12 13  1  0  0  0  0
 12 68  4  0  0  0  0
 13 14  1  0  0  0  0
 15 16  1  0  0  0  0
 15 67  4  0  0  0  0
 16 17  1  0  0  0  0
 17 18  1  0  0  0  0
 17 19  1  0  0  0  0
 17 20  1  0  0  0  0
 20 21  1  0  0  0  0
 21 22  1  0  0  0  0
 22 23  1  0  0  0  0
 22 66  2  0  0  0  0
 23 24  1  0  0  0  0
 23 65  1  0  0  0  0
 24 25  1  0  0  0  0
 25 26  1  0  0  0  0
 25 63  1  0  0  0  0
 26 27  1  0  0  0  0
 26 62  2  0  0  0  0
 27 28  1  0  0  0  0
 27 55  1  0  0  0  0
 28 29  1  0  0  0  0
 29 30  1  0  0  0  0
 29 54  2  0  0  0  0
 30 31  1  0  0  0  0
 30 34  1  0  0  0  0
 31 32  1  0  0  0  0
 31 33  1  0  0  0  0
 34 35  1  0  0  0  0
 34 53  1  0  0  0  0
 35 36  1  0  0  0  0
 35 52  2  0  0  0  0
 36 37  1  0  0  0  0
 36 51  1  0  0  0  0
 36 73  1  0  0  0  0
 37 38  1  0  0  0  0
 38 39  1  0  0  0  0
 39 40  1  0  0  0  0
 39 50  1  0  0  0  0
 40 41  1  0  0  0  0
 40 49  2  0  0  0  0
 41 42  1  0  0  0  0
 42 43  1  0  0  0  0
 43 44  1  0  0  0  0
 43 47  1  0  0  0  0
 43 48  1  0  0  0  0
 44 45  1  0  0  0  0
 44 46  1  0  0  0  0
 50 51  1  0  0  0  0
 55 56  1  0  0  0  0
 56 57  1  0  0  0  0
 56 61  1  0  0  0  0
 57 58  1  0  0  0  0
 58 59  1  0  0  0  0
 58 71  1  0  0  0  0
 59 60  1  0  0  0  0
 60 61  1  0  0  0  0
 63 64  1  0  0  0  0
 64 65  1  0  0  0  0
 67 68  4  0  0  0  0
 67 72  4  0  0  0  0
 68 69  4  0  0  0  0
 69 70  4  0  0  0  0
 70 71  4  0  0  0  0
 71 72  4  0  0  0  0
M  END
$$$$
