mol_ETKDG1_94
  PyMOL3.1          3D                             0

 73 79  0  0  0  0  0  0  0  0999 V2000
    2.4933   -3.6928   -3.9011 C   0  0  0  0  0  0  0  0  0  0  0  0
    2.8607   -3.2525   -2.5449 C   0  0  0  0  0  0  0  0  0  0  0  0
    3.4334   -4.2462   -1.7048 O   0  0  0  0  0  0  0  0  0  0  0  0
    2.6114   -5.2701   -1.2203 C   0  0  0  0  0  0  0  0  0  0  0  0
    3.7897   -2.0966   -2.5421 C   0  0  0  0  0  0  0  0  0  0  0  0
    5.0892   -2.3387   -2.6473 N   0  0  0  0  0  0  0  0  0  0  0  0
    6.0007   -1.3365   -2.6876 C   0  0  0  0  0  0  0  0  0  0  0  0
    5.6151    0.0005   -2.6195 C   0  0  0  0  0  0  0  0  0  0  0  0
    4.2492    0.2789   -2.5058 C   0  0  0  0  0  0  0  0  0  0  0  0
    3.3325   -0.7935   -2.4714 C   0  0  0  0  0  0  0  0  0  0  0  0
    1.9275   -0.4775   -2.3121 C   0  0  0  0  0  0  0  0  0  0  0  0
    1.1318    0.0477   -3.2814 N   0  0  0  0  0  0  0  0  0  0  0  0
    1.4818    0.2828   -4.7155 C   0  0  0  0  0  0  0  0  0  0  0  0
    1.6993    1.6805   -5.0615 C   0  0  0  0  0  0  0  0  0  0  0  0
    1.1681   -0.6767   -1.1407 C   0  0  0  0  0  0  0  0  0  0  0  0
    1.5113   -1.3825    0.0915 C   0  0  0  0  0  0  0  0  0  0  0  0
    2.1356   -0.6114    1.2820 C   0  0  0  0  0  0  0  0  0  0  0  0
    1.5303    0.7408    1.5365 C   0  0  0  0  0  0  0  0  0  0  0  0
    3.6044   -0.4156    1.1170 C   0  0  0  0  0  0  0  0  0  0  0  0
    1.9224   -1.4565    2.4827 C   0  0  0  0  0  0  0  0  0  0  0  0
    0.4944   -1.7798    2.8223 O   0  0  0  0  0  0  0  0  0  0  0  0
    0.1385   -2.9781    3.4706 C   0  0  0  0  0  0  0  0  0  0  0  0
   -1.2019   -2.9659    4.1754 C   0  0  0  0  0  0  0  0  0  0  0  0
   -1.3418   -1.6788    4.8129 N   0  0  0  0  0  0  0  0  0  0  0  0
   -2.4030   -1.4633    5.6701 N   0  0  0  0  0  0  0  0  0  0  0  0
   -3.2356   -0.3886    5.5127 C   0  0  0  0  0  0  0  0  0  0  0  0
   -3.1193    0.4736    4.2766 C   0  0  0  0  0  0  0  0  0  0  0  0
   -3.2436    1.8919    4.5722 N   0  0  0  0  0  0  0  0  0  0  0  0
   -2.2104    2.7550    4.6157 C   0  0  0  0  0  0  0  0  0  0  0  0
   -2.5855    4.1950    4.7550 C   0  0  0  0  0  0  0  0  0  0  0  0
   -2.2613    4.7880    6.1592 C   0  0  0  0  0  0  0  0  0  0  0  0
   -2.8755    6.1302    6.3798 C   0  0  0  0  0  0  0  0  0  0  0  0
   -2.5123    3.8337    7.2768 C   0  0  0  0  0  0  0  0  0  0  0  0
   -1.9244    4.9237    3.6690 N   0  0  0  0  0  0  0  0  0  0  0  0
   -2.5065    4.9174    2.4199 C   0  0  0  0  0  0  0  0  0  0  0  0
   -1.9678    5.5729    1.1697 C   0  0  0  0  0  0  0  0  0  0  0  0
   -0.4972    5.2667    0.9424 C   0  0  0  0  0  0  0  0  0  0  0  0
    0.0052    5.8583   -0.3252 C   0  0  0  0  0  0  0  0  0  0  0  0
   -0.8435    5.4521   -1.4561 N   0  0  0  0  0  0  0  0  0  0  0  0
   -0.3785    5.0214   -2.6560 C   0  0  0  0  0  0  0  0  0  0  0  0
    0.9095    5.2937   -3.0912 C   0  0  0  0  0  0  0  0  0  0  0  0
    1.8804    5.5459   -3.6960 C   0  0  0  0  0  0  0  0  0  0  0  0
    3.0755    5.9184   -4.3342 C   0  0  0  0  0  0  0  0  0  0  0  0
    2.8660    5.9392   -5.7585 N   0  0  0  0  0  0  0  0  0  0  0  0
    1.6928    6.5394   -6.2754 C   0  0  0  0  0  0  0  0  0  0  0  0
    3.6622    5.2326   -6.6717 C   0  0  0  0  0  0  0  0  0  0  0  0
    3.4946    7.3218   -3.8648 C   0  0  0  0  0  0  0  0  0  0  0  0
    4.1775    4.9589   -3.9505 C   0  0  0  0  0  0  0  0  0  0  0  0
   -1.1337    4.3922   -3.4136 O   0  0  0  0  0  0  0  0  0  0  0  0
   -2.2524    5.5307   -1.2886 C   0  0  0  0  0  0  0  0  0  0  0  0
   -2.7289    5.0286   -0.0430 C   0  0  0  0  0  0  0  0  0  0  0  0
   -3.5918    4.3206    2.3273 O   0  0  0  0  0  0  0  0  0  0  0  0
   -0.6194    5.5470    3.9251 C   0  0  0  0  0  0  0  0  0  0  0  0
   -1.0653    2.3857    4.4251 O   0  0  0  0  0  0  0  0  0  0  0  0
   -4.2894    0.0809    3.3022 C   0  0  0  0  0  0  0  0  0  0  0  0
   -4.3474    0.8414    1.9611 C   0  0  0  0  0  0  0  0  0  0  0  0
   -3.4513    0.1355    1.0333 C   0  0  0  0  0  0  0  0  0  0  0  0
   -3.4949    0.6807   -0.2999 N   0  0  0  0  0  0  0  0  0  0  0  0
   -4.8334    0.8419   -0.8727 C   0  0  0  0  0  0  0  0  0  0  0  0
   -5.8024    1.4517    0.1369 C   0  0  0  0  0  0  0  0  0  0  0  0
   -5.7130    0.7882    1.4480 O   0  0  0  0  0  0  0  0  0  0  0  0
   -4.1412   -0.1528    6.3247 O   0  0  0  0  0  0  0  0  0  0  0  0
   -2.5248   -2.4120    6.7754 C   0  0  0  0  0  0  0  0  0  0  0  0
   -2.4780   -3.8512    6.1978 C   0  0  0  0  0  0  0  0  0  0  0  0
   -1.2996   -4.0629    5.2705 C   0  0  0  0  0  0  0  0  0  0  0  0
    0.8316   -4.0393    3.5115 O   0  0  0  0  0  0  0  0  0  0  0  0
   -0.1058   -0.1470   -1.4414 C   0  0  0  0  0  0  0  0  0  0  0  0
   -0.0861    0.2966   -2.7529 C   0  0  0  0  0  0  0  0  0  0  0  0
   -1.2734    0.8965   -3.2961 C   0  0  0  0  0  0  0  0  0  0  0  0
   -2.3861    1.0249   -2.4467 C   0  0  0  0  0  0  0  0  0  0  0  0
   -2.3746    0.5626   -1.1232 C   0  0  0  0  0  0  0  0  0  0  0  0
   -1.2159   -0.0296   -0.6094 C   0  0  0  0  0  0  0  0  0  0  0  0
   -2.1456    6.9503    1.2428 F   0  0  0  0  0  0  0  0  0  0  0  0
  1  2  1  0  0  0  0
  2  3  1  0  0  0  0
  2  5  1  0  0  0  0
  3  4  1  0  0  0  0
  5  6  4  0  0  0  0
  5 10  4  0  0  0  0
  6  7  4  0  0  0  0
  7  8  4  0  0  0  0
  8  9  4  0  0  0  0
  9 10  4  0  0  0  0
 10 11  1  0  0  0  0
 11 12  4  0  0  0  0
 11 15  4  0  0  0  0
 12 13  1  0  0  0  0
 12 68  4  0  0  0  0
 13 14  1  0  0  0  0
 15 16  1  0  0  0  0
 15 67  4  0  0  0  0
 16 17  1  0  0  0  0
 17 18  1  0  0  0  0
 17 19  1  0  0  0  0
 17 20  1  0  0  0  0
 20 21  1  0  0  0  0
 21 22  1  0  0  0  0
 22 23  1  0  0  0  0
 22 66  2  0  0  0  0
 23 24  1  0  0  0  0
 23 65  1  0  0  0  0
 24 25  1  0  0  0  0
 25 26  1  0  0  0  0
 25 63  1  0  0  0  0
 26 27  1  0  0  0  0
 26 62  2  0  0  0  0
 27 28  1  0  0  0  0
 27 55  1  0  0  0  0
 28 29  1  0  0  0  0
 29 30  1  0  0  0  0
 29 54  2  0  0  0  0
 30 31  1  0  0  0  0
 30 34  1  0  0  0  0
 31 32  1  0  0  0  0
 31 33  1  0  0  0  0
 34 35  1  0  0  0  0
 34 53  1  0  0  0  0
 35 36  1  0  0  0  0
 35 52  2  0  0  0  0
 36 37  1  0  0  0  0
 36 51  1  0  0  0  0
 36 73  1  0  0  0  0
 37 38  1  0  0  0  0
 38 39  1  0  0  0  0
 39 40  1  0  0  0  0
 39 50  1  0  0  0  0
 40 41  1  0  0  0  0
 40 49  2  0  0  0  0
 41 42  1  0  0  0  0
 42 43  1  0  0  0  0
 43 44  1  0  0  0  0
 43 47  1  0  0  0  0
 43 48  1  0  0  0  0
 44 45  1  0  0  0  0
 44 46  1  0  0  0  0
 50 51  1  0  0  0  0
 55 56  1  0  0  0  0
 56 57  1  0  0  0  0
 56 61  1  0  0  0  0
 57 58  1  0  0  0  0
 58 59  1  0  0  0  0
 58 71  1  0  0  0  0
 59 60  1  0  0  0  0
 60 61  1  0  0  0  0
 63 64  1  0  0  0  0
 64 65  1  0  0  0  0
 67 68  4  0  0  0  0
 67 72  4  0  0  0  0
 68 69  4  0  0  0  0
 69 70  4  0  0  0  0
 70 71  4  0  0  0  0
 71 72  4  0  0  0  0
M  END
$$$$
