mol_ETKDG0_311
  PyMOL3.1          3D                             0

 73 79  0  0  0  0  0  0  0  0999 V2000
   -0.4236   -2.8281   -2.6167 C   0  0  0  0  0  0  0  0  0  0  0  0
   -0.5659   -1.4302   -2.1637 C   0  0  0  0  0  0  0  0  0  0  0  0
    0.4514   -0.5479   -2.5963 O   0  0  0  0  0  0  0  0  0  0  0  0
    1.6986   -0.6346   -1.9701 C   0  0  0  0  0  0  0  0  0  0  0  0
   -1.8355   -0.8284   -2.5961 C   0  0  0  0  0  0  0  0  0  0  0  0
   -1.9749   -0.5576   -3.8847 N   0  0  0  0  0  0  0  0  0  0  0  0
   -3.1205   -0.0444   -4.3702 C   0  0  0  0  0  0  0  0  0  0  0  0
   -4.2084    0.2147   -3.5348 C   0  0  0  0  0  0  0  0  0  0  0  0
   -4.0818   -0.0729   -2.1686 C   0  0  0  0  0  0  0  0  0  0  0  0
   -2.8677   -0.5802   -1.6958 C   0  0  0  0  0  0  0  0  0  0  0  0
   -2.7223   -0.8331   -0.2737 C   0  0  0  0  0  0  0  0  0  0  0  0
   -3.1918   -1.9508    0.3418 N   0  0  0  0  0  0  0  0  0  0  0  0
   -3.8992   -3.1114   -0.2943 C   0  0  0  0  0  0  0  0  0  0  0  0
   -5.3358   -3.1224   -0.0142 C   0  0  0  0  0  0  0  0  0  0  0  0
   -2.0238   -0.0165    0.6573 C   0  0  0  0  0  0  0  0  0  0  0  0
   -1.2667    1.2725    0.4699 C   0  0  0  0  0  0  0  0  0  0  0  0
   -2.1154    2.6123    0.5817 C   0  0  0  0  0  0  0  0  0  0  0  0
   -1.1568    3.7694    0.3530 C   0  0  0  0  0  0  0  0  0  0  0  0
   -3.1142    2.7257   -0.5168 C   0  0  0  0  0  0  0  0  0  0  0  0
   -2.8256    2.7737    1.9291 C   0  0  0  0  0  0  0  0  0  0  0  0
   -1.9974    3.3255    3.0599 O   0  0  0  0  0  0  0  0  0  0  0  0
   -2.3869    4.4122    3.9028 C   0  0  0  0  0  0  0  0  0  0  0  0
   -1.4486    4.8309    5.0285 C   0  0  0  0  0  0  0  0  0  0  0  0
   -0.1241    4.4145    4.7296 N   0  0  0  0  0  0  0  0  0  0  0  0
    0.8996    4.7727    5.6001 N   0  0  0  0  0  0  0  0  0  0  0  0
    1.7572    3.8402    6.0921 C   0  0  0  0  0  0  0  0  0  0  0  0
    1.5317    2.4045    5.7415 C   0  0  0  0  0  0  0  0  0  0  0  0
    2.7633    1.7406    5.3836 N   0  0  0  0  0  0  0  0  0  0  0  0
    3.1293    1.5200    4.1076 C   0  0  0  0  0  0  0  0  0  0  0  0
    4.3428    0.6834    3.9125 C   0  0  0  0  0  0  0  0  0  0  0  0
    5.6084    1.4814    3.4678 C   0  0  0  0  0  0  0  0  0  0  0  0
    6.8580    0.6749    3.5315 C   0  0  0  0  0  0  0  0  0  0  0  0
    5.7305    2.8113    4.1381 C   0  0  0  0  0  0  0  0  0  0  0  0
    3.9765   -0.3773    2.9742 N   0  0  0  0  0  0  0  0  0  0  0  0
    3.4221   -1.5342    3.4836 C   0  0  0  0  0  0  0  0  0  0  0  0
    2.9045   -2.7533    2.7729 C   0  0  0  0  0  0  0  0  0  0  0  0
    3.1946   -2.9475    1.3262 C   0  0  0  0  0  0  0  0  0  0  0  0
    2.5215   -4.1435    0.7691 C   0  0  0  0  0  0  0  0  0  0  0  0
    1.1099   -4.2741    1.1647 N   0  0  0  0  0  0  0  0  0  0  0  0
    0.1822   -4.9835    0.4896 C   0  0  0  0  0  0  0  0  0  0  0  0
    0.5421   -6.1273   -0.1762 C   0  0  0  0  0  0  0  0  0  0  0  0
    0.6477   -7.1704   -0.6736 C   0  0  0  0  0  0  0  0  0  0  0  0
    0.9251   -8.4262   -1.2298 C   0  0  0  0  0  0  0  0  0  0  0  0
   -0.1596   -9.3255   -0.9227 N   0  0  0  0  0  0  0  0  0  0  0  0
   -1.3279   -9.2997   -1.7148 C   0  0  0  0  0  0  0  0  0  0  0  0
   -0.2771   -9.8598    0.3690 C   0  0  0  0  0  0  0  0  0  0  0  0
    2.2158   -8.9641   -0.6608 C   0  0  0  0  0  0  0  0  0  0  0  0
    1.1155   -8.3058   -2.7300 C   0  0  0  0  0  0  0  0  0  0  0  0
   -1.0180   -4.6632    0.5276 O   0  0  0  0  0  0  0  0  0  0  0  0
    0.6730   -3.6933    2.3358 C   0  0  0  0  0  0  0  0  0  0  0  0
    1.3984   -2.7678    3.0198 C   0  0  0  0  0  0  0  0  0  0  0  0
    3.3056   -1.5678    4.7187 O   0  0  0  0  0  0  0  0  0  0  0  0
    4.0942   -0.0933    1.5465 C   0  0  0  0  0  0  0  0  0  0  0  0
    2.4279    1.8952    3.1931 O   0  0  0  0  0  0  0  0  0  0  0  0
    0.8404    1.6582    6.9394 C   0  0  0  0  0  0  0  0  0  0  0  0
    0.4378    0.1976    6.6370 C   0  0  0  0  0  0  0  0  0  0  0  0
   -0.7160    0.2405    5.6953 C   0  0  0  0  0  0  0  0  0  0  0  0
   -1.2362   -1.0710    5.4247 N   0  0  0  0  0  0  0  0  0  0  0  0
   -1.5399   -1.8837    6.6028 C   0  0  0  0  0  0  0  0  0  0  0  0
   -0.4026   -1.8117    7.6318 C   0  0  0  0  0  0  0  0  0  0  0  0
    0.0161   -0.4241    7.8807 O   0  0  0  0  0  0  0  0  0  0  0  0
    2.6898    4.1421    6.8478 O   0  0  0  0  0  0  0  0  0  0  0  0
    1.0350    6.2006    5.8828 C   0  0  0  0  0  0  0  0  0  0  0  0
   -0.3404    6.7675    6.2753 C   0  0  0  0  0  0  0  0  0  0  0  0
   -1.4343    6.3721    5.2807 C   0  0  0  0  0  0  0  0  0  0  0  0
   -3.4475    5.0448    3.7679 O   0  0  0  0  0  0  0  0  0  0  0  0
   -2.1371   -0.7223    1.8771 C   0  0  0  0  0  0  0  0  0  0  0  0
   -2.8622   -1.8876    1.6417 C   0  0  0  0  0  0  0  0  0  0  0  0
   -3.0923   -2.8032    2.7170 C   0  0  0  0  0  0  0  0  0  0  0  0
   -2.5400   -2.4852    3.9578 C   0  0  0  0  0  0  0  0  0  0  0  0
   -1.7999   -1.3279    4.1764 C   0  0  0  0  0  0  0  0  0  0  0  0
   -1.5972   -0.4150    3.1206 C   0  0  0  0  0  0  0  0  0  0  0  0
    3.4639   -3.8783    3.3256 F   0  0  0  0  0  0  0  0  0  0  0  0
  1  2  1  0  0  0  0
  2  3  1  0  0  0  0
  2  5  1  0  0  0  0
  3  4  1  0  0  0  0
  5  6  4  0  0  0  0
  5 10  4  0  0  0  0
  6  7  4  0  0  0  0
  7  8  4  0  0  0  0
  8  9  4  0  0  0  0
  9 10  4  0  0  0  0
 10 11  1  0  0  0  0
 11 12  4  0  0  0  0
 11 15  4  0  0  0  0
 12 13  1  0  0  0  0
 12 68  4  0  0  0  0
 13 14  1  0  0  0  0
 15 16  1  0  0  0  0
 15 67  4  0  0  0  0
 16 17  1  0  0  0  0
 17 18  1  0  0  0  0
 17 19  1  0  0  0  0
 17 20  1  0  0  0  0
 20 21  1  0  0  0  0
 21 22  1  0  0  0  0
 22 23  1  0  0  0  0
 22 66  2  0  0  0  0
 23 24  1  0  0  0  0
 23 65  1  0  0  0  0
 24 25  1  0  0  0  0
 25 26  1  0  0  0  0
 25 63  1  0  0  0  0
 26 27  1  0  0  0  0
 26 62  2  0  0  0  0
 27 28  1  0  0  0  0
 27 55  1  0  0  0  0
 28 29  1  0  0  0  0
 29 30  1  0  0  0  0
 29 54  2  0  0  0  0
 30 31  1  0  0  0  0
 30 34  1  0  0  0  0
 31 32  1  0  0  0  0
 31 33  1  0  0  0  0
 34 35  1  0  0  0  0
 34 53  1  0  0  0  0
 35 36  1  0  0  0  0
 35 52  2  0  0  0  0
 36 37  1  0  0  0  0
 36 51  1  0  0  0  0
 36 73  1  0  0  0  0
 37 38  1  0  0  0  0
 38 39  1  0  0  0  0
 39 40  1  0  0  0  0
 39 50  1  0  0  0  0
 40 41  1  0  0  0  0
 40 49  2  0  0  0  0
 41 42  1  0  0  0  0
 42 43  1  0  0  0  0
 43 44  1  0  0  0  0
 43 47  1  0  0  0  0
 43 48  1  0  0  0  0
 44 45  1  0  0  0  0
 44 46  1  0  0  0  0
 50 51  1  0  0  0  0
 55 56  1  0  0  0  0
 56 57  1  0  0  0  0
 56 61  1  0  0  0  0
 57 58  1  0  0  0  0
 58 59  1  0  0  0  0
 58 71  1  0  0  0  0
 59 60  1  0  0  0  0
 60 61  1  0  0  0  0
 63 64  1  0  0  0  0
 64 65  1  0  0  0  0
 67 68  4  0  0  0  0
 67 72  4  0  0  0  0
 68 69  4  0  0  0  0
 69 70  4  0  0  0  0
 70 71  4  0  0  0  0
 71 72  4  0  0  0  0
M  END
$$$$
