mol_ETKDG0_340
  PyMOL3.1          3D                             0

 73 79  0  0  0  0  0  0  0  0999 V2000
   -2.2368    2.0942    6.9464 C   0  0  0  0  0  0  0  0  0  0  0  0
   -1.2191    1.3957    7.7421 C   0  0  0  0  0  0  0  0  0  0  0  0
   -0.8305    2.0711    8.9451 O   0  0  0  0  0  0  0  0  0  0  0  0
    0.1454    3.0752    8.8167 C   0  0  0  0  0  0  0  0  0  0  0  0
   -1.6033    0.0054    8.0915 C   0  0  0  0  0  0  0  0  0  0  0  0
   -2.4536   -0.1784    9.0850 N   0  0  0  0  0  0  0  0  0  0  0  0
   -2.8147   -1.4174    9.4840 C   0  0  0  0  0  0  0  0  0  0  0  0
   -2.3316   -2.5603    8.8467 C   0  0  0  0  0  0  0  0  0  0  0  0
   -1.4341   -2.3916    7.7849 C   0  0  0  0  0  0  0  0  0  0  0  0
   -1.0962   -1.0888    7.3980 C   0  0  0  0  0  0  0  0  0  0  0  0
   -0.2144   -0.9267    6.2712 C   0  0  0  0  0  0  0  0  0  0  0  0
    1.1350   -0.8370    6.3856 N   0  0  0  0  0  0  0  0  0  0  0  0
    1.9551   -0.8717    7.6514 C   0  0  0  0  0  0  0  0  0  0  0  0
    2.6090   -2.1693    7.8682 C   0  0  0  0  0  0  0  0  0  0  0  0
   -0.6150   -0.7548    4.9234 C   0  0  0  0  0  0  0  0  0  0  0  0
   -1.9787   -0.6735    4.3038 C   0  0  0  0  0  0  0  0  0  0  0  0
   -2.6279   -2.0445    3.8552 C   0  0  0  0  0  0  0  0  0  0  0  0
   -3.8048   -1.7078    2.9690 C   0  0  0  0  0  0  0  0  0  0  0  0
   -3.2435   -2.7753    5.0049 C   0  0  0  0  0  0  0  0  0  0  0  0
   -1.6389   -2.9464    3.1239 C   0  0  0  0  0  0  0  0  0  0  0  0
   -1.7171   -2.8572    1.6303 O   0  0  0  0  0  0  0  0  0  0  0  0
   -1.9080   -3.9660    0.7627 C   0  0  0  0  0  0  0  0  0  0  0  0
   -2.0303   -3.6830   -0.7324 C   0  0  0  0  0  0  0  0  0  0  0  0
   -2.4982   -2.3385   -0.9283 N   0  0  0  0  0  0  0  0  0  0  0  0
   -2.7257   -1.9111   -2.2305 N   0  0  0  0  0  0  0  0  0  0  0  0
   -2.1369   -0.7750   -2.7099 C   0  0  0  0  0  0  0  0  0  0  0  0
   -1.2162   -0.0176   -1.8002 C   0  0  0  0  0  0  0  0  0  0  0  0
   -1.3453    1.4128   -1.9675 N   0  0  0  0  0  0  0  0  0  0  0  0
   -1.9997    2.1992   -1.0926 C   0  0  0  0  0  0  0  0  0  0  0  0
   -1.8552    3.6667   -1.3261 C   0  0  0  0  0  0  0  0  0  0  0  0
   -3.0638    4.3807   -1.9916 C   0  0  0  0  0  0  0  0  0  0  0  0
   -4.0890    3.5212   -2.5944 C   0  0  0  0  0  0  0  0  0  0  0  0
   -2.6337    5.5442   -2.8492 C   0  0  0  0  0  0  0  0  0  0  0  0
   -1.4927    4.2559   -0.0359 N   0  0  0  0  0  0  0  0  0  0  0  0
   -0.1745    4.1986    0.3539 C   0  0  0  0  0  0  0  0  0  0  0  0
    0.3660    4.6652    1.6841 C   0  0  0  0  0  0  0  0  0  0  0  0
    0.0225    3.5918    2.6981 C   0  0  0  0  0  0  0  0  0  0  0  0
    0.5484    3.9418    4.0585 C   0  0  0  0  0  0  0  0  0  0  0  0
    2.0011    4.1498    3.9584 N   0  0  0  0  0  0  0  0  0  0  0  0
    2.8613    3.4304    4.7561 C   0  0  0  0  0  0  0  0  0  0  0  0
    4.1918    3.2160    4.4153 C   0  0  0  0  0  0  0  0  0  0  0  0
    5.3162    2.9629    4.2580 C   0  0  0  0  0  0  0  0  0  0  0  0
    6.6657    2.7107    3.9211 C   0  0  0  0  0  0  0  0  0  0  0  0
    7.4075    2.3596    5.0839 N   0  0  0  0  0  0  0  0  0  0  0  0
    8.2174    3.2937    5.7491 C   0  0  0  0  0  0  0  0  0  0  0  0
    7.1428    1.1359    5.7515 C   0  0  0  0  0  0  0  0  0  0  0  0
    7.2353    3.9452    3.2385 C   0  0  0  0  0  0  0  0  0  0  0  0
    6.7613    1.5874    2.8993 C   0  0  0  0  0  0  0  0  0  0  0  0
    2.4450    2.8988    5.7849 O   0  0  0  0  0  0  0  0  0  0  0  0
    2.4448    5.1134    2.9787 C   0  0  0  0  0  0  0  0  0  0  0  0
    1.8974    4.8283    1.6355 C   0  0  0  0  0  0  0  0  0  0  0  0
    0.6313    3.6897   -0.4515 O   0  0  0  0  0  0  0  0  0  0  0  0
   -2.5606    4.7731    0.8387 C   0  0  0  0  0  0  0  0  0  0  0  0
   -2.5471    1.7312   -0.1087 O   0  0  0  0  0  0  0  0  0  0  0  0
    0.2794   -0.4466   -2.0947 C   0  0  0  0  0  0  0  0  0  0  0  0
    1.3396    0.2042   -1.1614 C   0  0  0  0  0  0  0  0  0  0  0  0
    1.3107   -0.5289    0.1276 C   0  0  0  0  0  0  0  0  0  0  0  0
    2.3262   -0.0528    1.0417 N   0  0  0  0  0  0  0  0  0  0  0  0
    3.6929   -0.0330    0.4873 C   0  0  0  0  0  0  0  0  0  0  0  0
    3.6971    0.6245   -0.9047 C   0  0  0  0  0  0  0  0  0  0  0  0
    2.6496    0.0496   -1.7714 O   0  0  0  0  0  0  0  0  0  0  0  0
   -2.3060   -0.3934   -3.8789 O   0  0  0  0  0  0  0  0  0  0  0  0
   -3.6737   -2.7134   -3.0093 C   0  0  0  0  0  0  0  0  0  0  0  0
   -3.2874   -4.2041   -2.8959 C   0  0  0  0  0  0  0  0  0  0  0  0
   -3.0287   -4.6414   -1.4482 C   0  0  0  0  0  0  0  0  0  0  0  0
   -1.9628   -5.1542    1.1400 O   0  0  0  0  0  0  0  0  0  0  0  0
    0.5995   -0.6078    4.2333 C   0  0  0  0  0  0  0  0  0  0  0  0
    1.6399   -0.6592    5.1606 C   0  0  0  0  0  0  0  0  0  0  0  0
    2.9879   -0.5080    4.7022 C   0  0  0  0  0  0  0  0  0  0  0  0
    3.1793   -0.3022    3.3242 C   0  0  0  0  0  0  0  0  0  0  0  0
    2.1119   -0.2519    2.4168 C   0  0  0  0  0  0  0  0  0  0  0  0
    0.7982   -0.3864    2.8754 C   0  0  0  0  0  0  0  0  0  0  0  0
   -0.1533    5.9061    2.0229 F   0  0  0  0  0  0  0  0  0  0  0  0
  1  2  1  0  0  0  0
  2  3  1  0  0  0  0
  2  5  1  0  0  0  0
  3  4  1  0  0  0  0
  5  6  4  0  0  0  0
  5 10  4  0  0  0  0
  6  7  4  0  0  0  0
  7  8  4  0  0  0  0
  8  9  4  0  0  0  0
  9 10  4  0  0  0  0
 10 11  1  0  0  0  0
 11 12  4  0  0  0  0
 11 15  4  0  0  0  0
 12 13  1  0  0  0  0
 12 68  4  0  0  0  0
 13 14  1  0  0  0  0
 15 16  1  0  0  0  0
 15 67  4  0  0  0  0
 16 17  1  0  0  0  0
 17 18  1  0  0  0  0
 17 19  1  0  0  0  0
 17 20  1  0  0  0  0
 20 21  1  0  0  0  0
 21 22  1  0  0  0  0
 22 23  1  0  0  0  0
 22 66  2  0  0  0  0
 23 24  1  0  0  0  0
 23 65  1  0  0  0  0
 24 25  1  0  0  0  0
 25 26  1  0  0  0  0
 25 63  1  0  0  0  0
 26 27  1  0  0  0  0
 26 62  2  0  0  0  0
 27 28  1  0  0  0  0
 27 55  1  0  0  0  0
 28 29  1  0  0  0  0
 29 30  1  0  0  0  0
 29 54  2  0  0  0  0
 30 31  1  0  0  0  0
 30 34  1  0  0  0  0
 31 32  1  0  0  0  0
 31 33  1  0  0  0  0
 34 35  1  0  0  0  0
 34 53  1  0  0  0  0
 35 36  1  0  0  0  0
 35 52  2  0  0  0  0
 36 37  1  0  0  0  0
 36 51  1  0  0  0  0
 36 73  1  0  0  0  0
 37 38  1  0  0  0  0
 38 39  1  0  0  0  0
 39 40  1  0  0  0  0
 39 50  1  0  0  0  0
 40 41  1  0  0  0  0
 40 49  2  0  0  0  0
 41 42  1  0  0  0  0
 42 43  1  0  0  0  0
 43 44  1  0  0  0  0
 43 47  1  0  0  0  0
 43 48  1  0  0  0  0
 44 45  1  0  0  0  0
 44 46  1  0  0  0  0
 50 51  1  0  0  0  0
 55 56  1  0  0  0  0
 56 57  1  0  0  0  0
 56 61  1  0  0  0  0
 57 58  1  0  0  0  0
 58 59  1  0  0  0  0
 58 71  1  0  0  0  0
 59 60  1  0  0  0  0
 60 61  1  0  0  0  0
 63 64  1  0  0  0  0
 64 65  1  0  0  0  0
 67 68  4  0  0  0  0
 67 72  4  0  0  0  0
 68 69  4  0  0  0  0
 69 70  4  0  0  0  0
 70 71  4  0  0  0  0
 71 72  4  0  0  0  0
M  END
$$$$
