mol_ETKDG3_157
  PyMOL3.1          3D                             0

 73 79  0  0  0  0  0  0  0  0999 V2000
    2.2251    2.9713   -0.1419 C   0  0  0  0  0  0  0  0  0  0  0  0
    0.8049    3.0646   -0.5555 C   0  0  0  0  0  0  0  0  0  0  0  0
    0.0818    4.1569   -0.0021 O   0  0  0  0  0  0  0  0  0  0  0  0
   -0.2701    4.1033    1.3592 C   0  0  0  0  0  0  0  0  0  0  0  0
    0.6340    3.1221   -2.0247 C   0  0  0  0  0  0  0  0  0  0  0  0
    0.8336    4.2829   -2.6233 N   0  0  0  0  0  0  0  0  0  0  0  0
    0.7408    4.4087   -3.9636 C   0  0  0  0  0  0  0  0  0  0  0  0
    0.4400    3.3157   -4.7865 C   0  0  0  0  0  0  0  0  0  0  0  0
    0.2365    2.0718   -4.1777 C   0  0  0  0  0  0  0  0  0  0  0  0
    0.3149    1.9849   -2.7838 C   0  0  0  0  0  0  0  0  0  0  0  0
    0.0579    0.7110   -2.1625 C   0  0  0  0  0  0  0  0  0  0  0  0
    0.9779   -0.2898   -2.1008 N   0  0  0  0  0  0  0  0  0  0  0  0
    2.3374   -0.3281   -2.7437 C   0  0  0  0  0  0  0  0  0  0  0  0
    3.4949   -0.3499   -1.8849 C   0  0  0  0  0  0  0  0  0  0  0  0
   -1.1508    0.3388   -1.5055 C   0  0  0  0  0  0  0  0  0  0  0  0
   -2.4435    1.0837   -1.2727 C   0  0  0  0  0  0  0  0  0  0  0  0
   -3.5394    1.0137   -2.4389 C   0  0  0  0  0  0  0  0  0  0  0  0
   -3.0937    1.7267   -3.6994 C   0  0  0  0  0  0  0  0  0  0  0  0
   -4.7360    1.7912   -1.9658 C   0  0  0  0  0  0  0  0  0  0  0  0
   -3.9801   -0.4151   -2.8094 C   0  0  0  0  0  0  0  0  0  0  0  0
   -5.1060   -0.9768   -1.9731 O   0  0  0  0  0  0  0  0  0  0  0  0
   -6.2067   -1.7385   -2.4739 C   0  0  0  0  0  0  0  0  0  0  0  0
   -7.2394   -2.2620   -1.4797 C   0  0  0  0  0  0  0  0  0  0  0  0
   -7.1013   -1.5640   -0.2464 N   0  0  0  0  0  0  0  0  0  0  0  0
   -7.9603   -1.8728    0.8017 N   0  0  0  0  0  0  0  0  0  0  0  0
   -7.4667   -2.2153    2.0301 C   0  0  0  0  0  0  0  0  0  0  0  0
   -5.9759   -2.3281    2.1968 C   0  0  0  0  0  0  0  0  0  0  0  0
   -5.5115   -1.7985    3.4641 N   0  0  0  0  0  0  0  0  0  0  0  0
   -4.8448   -0.6281    3.5666 C   0  0  0  0  0  0  0  0  0  0  0  0
   -4.2789   -0.3054    4.9147 C   0  0  0  0  0  0  0  0  0  0  0  0
   -5.1250    0.7097    5.7457 C   0  0  0  0  0  0  0  0  0  0  0  0
   -6.5698    0.6931    5.4666 C   0  0  0  0  0  0  0  0  0  0  0  0
   -4.7853    0.6653    7.2107 C   0  0  0  0  0  0  0  0  0  0  0  0
   -2.9018    0.1741    4.7025 N   0  0  0  0  0  0  0  0  0  0  0  0
   -1.8827   -0.7559    4.5920 C   0  0  0  0  0  0  0  0  0  0  0  0
   -0.4207   -0.4285    4.3469 C   0  0  0  0  0  0  0  0  0  0  0  0
   -0.2476   -0.1778    2.8656 C   0  0  0  0  0  0  0  0  0  0  0  0
    1.1628    0.2147    2.5569 C   0  0  0  0  0  0  0  0  0  0  0  0
    2.0690   -0.8348    3.0239 N   0  0  0  0  0  0  0  0  0  0  0  0
    2.9909   -1.3399    2.1556 C   0  0  0  0  0  0  0  0  0  0  0  0
    3.4299   -2.6477    2.2144 C   0  0  0  0  0  0  0  0  0  0  0  0
    3.8882   -3.7041    2.1453 C   0  0  0  0  0  0  0  0  0  0  0  0
    4.3005   -5.0451    2.2045 C   0  0  0  0  0  0  0  0  0  0  0  0
    5.7031   -5.1710    1.9361 N   0  0  0  0  0  0  0  0  0  0  0  0
    6.2200   -6.2067    1.1452 C   0  0  0  0  0  0  0  0  0  0  0  0
    6.6382   -4.3769    2.6446 C   0  0  0  0  0  0  0  0  0  0  0  0
    3.4567   -5.8309    1.2127 C   0  0  0  0  0  0  0  0  0  0  0  0
    4.0056   -5.6244    3.5913 C   0  0  0  0  0  0  0  0  0  0  0  0
    3.4036   -0.6315    1.2442 O   0  0  0  0  0  0  0  0  0  0  0  0
    1.9297   -1.2736    4.3895 C   0  0  0  0  0  0  0  0  0  0  0  0
    0.5279   -1.5704    4.7652 C   0  0  0  0  0  0  0  0  0  0  0  0
   -2.1991   -1.9572    4.6954 O   0  0  0  0  0  0  0  0  0  0  0  0
   -2.6724    1.6107    4.4977 C   0  0  0  0  0  0  0  0  0  0  0  0
   -4.6325    0.0562    2.5823 O   0  0  0  0  0  0  0  0  0  0  0  0
   -5.5400   -3.8414    2.0785 C   0  0  0  0  0  0  0  0  0  0  0  0
   -4.0085   -4.0787    2.1853 C   0  0  0  0  0  0  0  0  0  0  0  0
   -3.3921   -3.6500    0.9057 C   0  0  0  0  0  0  0  0  0  0  0  0
   -1.9718   -3.8860    0.8820 N   0  0  0  0  0  0  0  0  0  0  0  0
   -1.5621   -5.2560    1.2313 C   0  0  0  0  0  0  0  0  0  0  0  0
   -2.3195   -5.7643    2.4690 C   0  0  0  0  0  0  0  0  0  0  0  0
   -3.7668   -5.4973    2.3848 O   0  0  0  0  0  0  0  0  0  0  0  0
   -8.2115   -2.4747    2.9840 O   0  0  0  0  0  0  0  0  0  0  0  0
   -9.3938   -1.7358    0.5046 C   0  0  0  0  0  0  0  0  0  0  0  0
   -9.7099   -2.4541   -0.8260 C   0  0  0  0  0  0  0  0  0  0  0  0
   -8.7243   -2.1023   -1.9563 C   0  0  0  0  0  0  0  0  0  0  0  0
   -6.3633   -2.0044   -3.6732 O   0  0  0  0  0  0  0  0  0  0  0  0
   -0.8692   -0.9517   -1.0256 C   0  0  0  0  0  0  0  0  0  0  0  0
    0.4411   -1.2892   -1.3884 C   0  0  0  0  0  0  0  0  0  0  0  0
    0.9754   -2.5518   -0.9696 C   0  0  0  0  0  0  0  0  0  0  0  0
    0.1457   -3.3787   -0.2051 C   0  0  0  0  0  0  0  0  0  0  0  0
   -1.1631   -3.0245    0.1317 C   0  0  0  0  0  0  0  0  0  0  0  0
   -1.6923   -1.7898   -0.2802 C   0  0  0  0  0  0  0  0  0  0  0  0
   -0.0384    0.6655    5.0935 F   0  0  0  0  0  0  0  0  0  0  0  0
  1  2  1  0  0  0  0
  2  3  1  0  0  0  0
  2  5  1  0  0  0  0
  3  4  1  0  0  0  0
  5  6  4  0  0  0  0
  5 10  4  0  0  0  0
  6  7  4  0  0  0  0
  7  8  4  0  0  0  0
  8  9  4  0  0  0  0
  9 10  4  0  0  0  0
 10 11  1  0  0  0  0
 11 12  4  0  0  0  0
 11 15  4  0  0  0  0
 12 13  1  0  0  0  0
 12 68  4  0  0  0  0
 13 14  1  0  0  0  0
 15 16  1  0  0  0  0
 15 67  4  0  0  0  0
 16 17  1  0  0  0  0
 17 18  1  0  0  0  0
 17 19  1  0  0  0  0
 17 20  1  0  0  0  0
 20 21  1  0  0  0  0
 21 22  1  0  0  0  0
 22 23  1  0  0  0  0
 22 66  2  0  0  0  0
 23 24  1  0  0  0  0
 23 65  1  0  0  0  0
 24 25  1  0  0  0  0
 25 26  1  0  0  0  0
 25 63  1  0  0  0  0
 26 27  1  0  0  0  0
 26 62  2  0  0  0  0
 27 28  1  0  0  0  0
 27 55  1  0  0  0  0
 28 29  1  0  0  0  0
 29 30  1  0  0  0  0
 29 54  2  0  0  0  0
 30 31  1  0  0  0  0
 30 34  1  0  0  0  0
 31 32  1  0  0  0  0
 31 33  1  0  0  0  0
 34 35  1  0  0  0  0
 34 53  1  0  0  0  0
 35 36  1  0  0  0  0
 35 52  2  0  0  0  0
 36 37  1  0  0  0  0
 36 51  1  0  0  0  0
 36 73  1  0  0  0  0
 37 38  1  0  0  0  0
 38 39  1  0  0  0  0
 39 40  1  0  0  0  0
 39 50  1  0  0  0  0
 40 41  1  0  0  0  0
 40 49  2  0  0  0  0
 41 42  1  0  0  0  0
 42 43  1  0  0  0  0
 43 44  1  0  0  0  0
 43 47  1  0  0  0  0
 43 48  1  0  0  0  0
 44 45  1  0  0  0  0
 44 46  1  0  0  0  0
 50 51  1  0  0  0  0
 55 56  1  0  0  0  0
 56 57  1  0  0  0  0
 56 61  1  0  0  0  0
 57 58  1  0  0  0  0
 58 59  1  0  0  0  0
 58 71  1  0  0  0  0
 59 60  1  0  0  0  0
 60 61  1  0  0  0  0
 63 64  1  0  0  0  0
 64 65  1  0  0  0  0
 67 68  4  0  0  0  0
 67 72  4  0  0  0  0
 68 69  4  0  0  0  0
 69 70  4  0  0  0  0
 70 71  4  0  0  0  0
 71 72  4  0  0  0  0
M  END
$$$$
