mol_bioactive_27
  PyMOL3.1          3D                             0

 73 79  0  0  0  0  0  0  0  0999 V2000
    1.4943   -4.7979    6.2952 C   0  0  0  0  0  0  0  0  0  0  0  0
    0.8936   -3.6747    5.5306 C   0  0  0  0  0  0  0  0  0  0  0  0
    0.5528   -2.5621    6.3513 O   0  0  0  0  0  0  0  0  0  0  0  0
    1.6059   -1.8026    6.8963 C   0  0  0  0  0  0  0  0  0  0  0  0
   -0.3257   -4.0580    4.7556 C   0  0  0  0  0  0  0  0  0  0  0  0
   -1.4721   -4.0983    5.4060 N   0  0  0  0  0  0  0  0  0  0  0  0
   -2.6143   -4.4694    4.7955 C   0  0  0  0  0  0  0  0  0  0  0  0
   -2.6392   -4.8420    3.4500 C   0  0  0  0  0  0  0  0  0  0  0  0
   -1.4403   -4.8114    2.7397 C   0  0  0  0  0  0  0  0  0  0  0  0
   -0.2790   -4.4155    3.4031 C   0  0  0  0  0  0  0  0  0  0  0  0
    0.9640   -4.3533    2.6745 C   0  0  0  0  0  0  0  0  0  0  0  0
    1.8635   -5.3499    2.6485 N   0  0  0  0  0  0  0  0  0  0  0  0
    1.6619   -6.7420    3.1618 C   0  0  0  0  0  0  0  0  0  0  0  0
    2.5868   -7.2326    4.1422 C   0  0  0  0  0  0  0  0  0  0  0  0
    1.4288   -3.2643    1.8990 C   0  0  0  0  0  0  0  0  0  0  0  0
    0.7373   -2.0790    1.3672 C   0  0  0  0  0  0  0  0  0  0  0  0
    0.6393   -0.7368    2.0854 C   0  0  0  0  0  0  0  0  0  0  0  0
    0.2481    0.2733    1.0257 C   0  0  0  0  0  0  0  0  0  0  0  0
   -0.5015   -0.7379    3.0575 C   0  0  0  0  0  0  0  0  0  0  0  0
    1.9200   -0.3128    2.7498 C   0  0  0  0  0  0  0  0  0  0  0  0
    2.7939    0.6604    2.0086 O   0  0  0  0  0  0  0  0  0  0  0  0
    3.5700    1.6862    2.6175 C   0  0  0  0  0  0  0  0  0  0  0  0
    4.4097    2.5845    1.7293 C   0  0  0  0  0  0  0  0  0  0  0  0
    3.9823    2.4902    0.3704 N   0  0  0  0  0  0  0  0  0  0  0  0
    4.6127    3.2817   -0.5757 N   0  0  0  0  0  0  0  0  0  0  0  0
    5.1817    2.7330   -1.6901 C   0  0  0  0  0  0  0  0  0  0  0  0
    5.1876    1.2427   -1.8396 C   0  0  0  0  0  0  0  0  0  0  0  0
    4.9550    0.8277   -3.2139 N   0  0  0  0  0  0  0  0  0  0  0  0
    3.7571    0.5458   -3.7351 C   0  0  0  0  0  0  0  0  0  0  0  0
    3.7518   -0.0267   -5.1180 C   0  0  0  0  0  0  0  0  0  0  0  0
    3.2191    0.9285   -6.2289 C   0  0  0  0  0  0  0  0  0  0  0  0
    3.4682    0.4111   -7.6047 C   0  0  0  0  0  0  0  0  0  0  0  0
    3.6444    2.3473   -6.0409 C   0  0  0  0  0  0  0  0  0  0  0  0
    3.0049   -1.2721   -5.0386 N   0  0  0  0  0  0  0  0  0  0  0  0
    3.6756   -2.4024   -4.6430 C   0  0  0  0  0  0  0  0  0  0  0  0
    3.0228   -3.7251   -4.3645 C   0  0  0  0  0  0  0  0  0  0  0  0
    2.3494   -3.6026   -3.0184 C   0  0  0  0  0  0  0  0  0  0  0  0
    1.6550   -4.8484   -2.6442 C   0  0  0  0  0  0  0  0  0  0  0  0
    2.5823   -5.9707   -2.6976 N   0  0  0  0  0  0  0  0  0  0  0  0
    2.6622   -6.8155   -1.6343 C   0  0  0  0  0  0  0  0  0  0  0  0
    3.7056   -7.7009   -1.4861 C   0  0  0  0  0  0  0  0  0  0  0  0
    4.4793   -8.5232   -1.2485 C   0  0  0  0  0  0  0  0  0  0  0  0
    5.4909   -9.4767   -1.0955 C   0  0  0  0  0  0  0  0  0  0  0  0
    5.0614  -10.5999   -0.3414 N   0  0  0  0  0  0  0  0  0  0  0  0
    5.7253  -11.8239   -0.4011 C   0  0  0  0  0  0  0  0  0  0  0  0
    4.0077  -10.5041    0.5770 C   0  0  0  0  0  0  0  0  0  0  0  0
    6.6864   -8.8351   -0.4157 C   0  0  0  0  0  0  0  0  0  0  0  0
    5.9277   -9.9198   -2.4755 C   0  0  0  0  0  0  0  0  0  0  0  0
    1.8020   -6.7880   -0.7575 O   0  0  0  0  0  0  0  0  0  0  0  0
    3.3628   -6.1254   -3.8855 C   0  0  0  0  0  0  0  0  0  0  0  0
    4.0188   -4.8902   -4.3199 C   0  0  0  0  0  0  0  0  0  0  0  0
    4.9013   -2.3101   -4.4701 O   0  0  0  0  0  0  0  0  0  0  0  0
    1.5435   -1.2448   -5.2362 C   0  0  0  0  0  0  0  0  0  0  0  0
    2.7635    0.6271   -3.0476 O   0  0  0  0  0  0  0  0  0  0  0  0
    6.5630    0.7038   -1.3310 C   0  0  0  0  0  0  0  0  0  0  0  0
    6.8119   -0.7405   -0.8969 C   0  0  0  0  0  0  0  0  0  0  0  0
    5.6128   -1.4935   -0.5877 C   0  0  0  0  0  0  0  0  0  0  0  0
    5.8541   -2.8519   -0.2173 N   0  0  0  0  0  0  0  0  0  0  0  0
    7.1081   -3.4618   -0.5377 C   0  0  0  0  0  0  0  0  0  0  0  0
    8.0655   -2.6930   -1.3706 C   0  0  0  0  0  0  0  0  0  0  0  0
    7.6388   -1.4011   -1.8653 O   0  0  0  0  0  0  0  0  0  0  0  0
    5.7580    3.4280   -2.5391 O   0  0  0  0  0  0  0  0  0  0  0  0
    4.5771    4.7215   -0.3160 C   0  0  0  0  0  0  0  0  0  0  0  0
    5.0703    4.9783    1.1289 C   0  0  0  0  0  0  0  0  0  0  0  0
    4.3847    4.0809    2.1514 C   0  0  0  0  0  0  0  0  0  0  0  0
    3.6116    1.8984    3.8440 O   0  0  0  0  0  0  0  0  0  0  0  0
    2.7125   -3.6370    1.5107 C   0  0  0  0  0  0  0  0  0  0  0  0
    2.9369   -4.9200    1.9707 C   0  0  0  0  0  0  0  0  0  0  0  0
    4.1731   -5.5634    1.6506 C   0  0  0  0  0  0  0  0  0  0  0  0
    5.1029   -4.8520    0.9083 C   0  0  0  0  0  0  0  0  0  0  0  0
    4.8747   -3.5509    0.4824 C   0  0  0  0  0  0  0  0  0  0  0  0
    3.6457   -2.9260    0.7631 C   0  0  0  0  0  0  0  0  0  0  0  0
    2.1254   -4.0527   -5.3579 F   0  0  0  0  0  0  0  0  0  0  0  0
  1  2  1  0  0  0  0
  2  3  1  0  0  0  0
  2  5  1  0  0  0  0
  3  4  1  0  0  0  0
  5  6  4  0  0  0  0
  5 10  4  0  0  0  0
  6  7  4  0  0  0  0
  7  8  4  0  0  0  0
  8  9  4  0  0  0  0
  9 10  4  0  0  0  0
 10 11  1  0  0  0  0
 11 12  4  0  0  0  0
 11 15  4  0  0  0  0
 12 13  1  0  0  0  0
 12 68  4  0  0  0  0
 13 14  1  0  0  0  0
 15 16  1  0  0  0  0
 15 67  4  0  0  0  0
 16 17  1  0  0  0  0
 17 18  1  0  0  0  0
 17 19  1  0  0  0  0
 17 20  1  0  0  0  0
 20 21  1  0  0  0  0
 21 22  1  0  0  0  0
 22 23  1  0  0  0  0
 22 66  2  0  0  0  0
 23 24  1  0  0  0  0
 23 65  1  0  0  0  0
 24 25  1  0  0  0  0
 25 26  1  0  0  0  0
 25 63  1  0  0  0  0
 26 27  1  0  0  0  0
 26 62  2  0  0  0  0
 27 28  1  0  0  0  0
 27 55  1  0  0  0  0
 28 29  1  0  0  0  0
 29 30  1  0  0  0  0
 29 54  2  0  0  0  0
 30 31  1  0  0  0  0
 30 34  1  0  0  0  0
 31 32  1  0  0  0  0
 31 33  1  0  0  0  0
 34 35  1  0  0  0  0
 34 53  1  0  0  0  0
 35 36  1  0  0  0  0
 35 52  2  0  0  0  0
 36 37  1  0  0  0  0
 36 51  1  0  0  0  0
 36 73  1  0  0  0  0
 37 38  1  0  0  0  0
 38 39  1  0  0  0  0
 39 40  1  0  0  0  0
 39 50  1  0  0  0  0
 40 41  1  0  0  0  0
 40 49  2  0  0  0  0
 41 42  1  0  0  0  0
 42 43  1  0  0  0  0
 43 44  1  0  0  0  0
 43 47  1  0  0  0  0
 43 48  1  0  0  0  0
 44 45  1  0  0  0  0
 44 46  1  0  0  0  0
 50 51  1  0  0  0  0
 55 56  1  0  0  0  0
 56 57  1  0  0  0  0
 56 61  1  0  0  0  0
 57 58  1  0  0  0  0
 58 59  1  0  0  0  0
 58 71  1  0  0  0  0
 59 60  1  0  0  0  0
 60 61  1  0  0  0  0
 63 64  1  0  0  0  0
 64 65  1  0  0  0  0
 67 68  4  0  0  0  0
 67 72  4  0  0  0  0
 68 69  4  0  0  0  0
 69 70  4  0  0  0  0
 70 71  4  0  0  0  0
 71 72  4  0  0  0  0
M  END
$$$$
