mol_ETKDG0_315
  PyMOL3.1          3D                             0

 73 79  0  0  0  0  0  0  0  0999 V2000
    8.5736    2.7977   -7.1520 C   0  0  0  0  0  0  0  0  0  0  0  0
    7.2113    3.2576   -6.7330 C   0  0  0  0  0  0  0  0  0  0  0  0
    7.1182    4.6665   -6.6084 O   0  0  0  0  0  0  0  0  0  0  0  0
    7.8026    5.2671   -5.5253 C   0  0  0  0  0  0  0  0  0  0  0  0
    6.1342    2.8056   -7.6706 C   0  0  0  0  0  0  0  0  0  0  0  0
    6.1332    3.3472   -8.8782 N   0  0  0  0  0  0  0  0  0  0  0  0
    5.2480    2.9572   -9.8229 C   0  0  0  0  0  0  0  0  0  0  0  0
    4.2990    1.9642   -9.5686 C   0  0  0  0  0  0  0  0  0  0  0  0
    4.2797    1.3804   -8.2981 C   0  0  0  0  0  0  0  0  0  0  0  0
    5.1884    1.8208   -7.3304 C   0  0  0  0  0  0  0  0  0  0  0  0
    5.0984    1.2619   -5.9900 C   0  0  0  0  0  0  0  0  0  0  0  0
    5.9844    0.3770   -5.4677 N   0  0  0  0  0  0  0  0  0  0  0  0
    7.1616   -0.2521   -6.1643 C   0  0  0  0  0  0  0  0  0  0  0  0
    6.9715   -1.6807   -6.4678 C   0  0  0  0  0  0  0  0  0  0  0  0
    4.1004    1.5645   -5.0212 C   0  0  0  0  0  0  0  0  0  0  0  0
    2.8269    2.3225   -5.1224 C   0  0  0  0  0  0  0  0  0  0  0  0
    2.9180    3.8586   -4.9365 C   0  0  0  0  0  0  0  0  0  0  0  0
    3.3474    4.5528   -6.2113 C   0  0  0  0  0  0  0  0  0  0  0  0
    1.5417    4.3666   -4.6737 C   0  0  0  0  0  0  0  0  0  0  0  0
    3.8055    4.1978   -3.8448 C   0  0  0  0  0  0  0  0  0  0  0  0
    3.1756    4.5697   -2.5518 O   0  0  0  0  0  0  0  0  0  0  0  0
    3.7949    5.3936   -1.5991 C   0  0  0  0  0  0  0  0  0  0  0  0
    3.0402    5.7348   -0.3612 C   0  0  0  0  0  0  0  0  0  0  0  0
    1.7458    5.1023   -0.3616 N   0  0  0  0  0  0  0  0  0  0  0  0
    0.9255    5.4021    0.7054 N   0  0  0  0  0  0  0  0  0  0  0  0
    0.3947    4.4145    1.4646 C   0  0  0  0  0  0  0  0  0  0  0  0
    0.6061    2.9527    1.1118 C   0  0  0  0  0  0  0  0  0  0  0  0
   -0.4885    2.1946    1.6634 N   0  0  0  0  0  0  0  0  0  0  0  0
   -1.5348    1.7402    0.9864 C   0  0  0  0  0  0  0  0  0  0  0  0
   -2.5726    1.0539    1.7920 C   0  0  0  0  0  0  0  0  0  0  0  0
   -3.9440    1.8028    1.7336 C   0  0  0  0  0  0  0  0  0  0  0  0
   -5.0522    1.0799    2.4006 C   0  0  0  0  0  0  0  0  0  0  0  0
   -3.8219    3.2166    2.2191 C   0  0  0  0  0  0  0  0  0  0  0  0
   -2.6865   -0.3403    1.4413 N   0  0  0  0  0  0  0  0  0  0  0  0
   -2.1907   -1.2672    2.3187 C   0  0  0  0  0  0  0  0  0  0  0  0
   -2.3588   -2.7519    2.2700 C   0  0  0  0  0  0  0  0  0  0  0  0
   -3.5159   -3.2332    1.4512 C   0  0  0  0  0  0  0  0  0  0  0  0
   -3.6591   -4.6497    1.4125 C   0  0  0  0  0  0  0  0  0  0  0  0
   -2.4077   -5.3585    1.2195 N   0  0  0  0  0  0  0  0  0  0  0  0
   -2.4267   -6.4866    0.4833 C   0  0  0  0  0  0  0  0  0  0  0  0
   -1.3935   -7.3939    0.5476 C   0  0  0  0  0  0  0  0  0  0  0  0
   -0.6827   -8.2986    0.5370 C   0  0  0  0  0  0  0  0  0  0  0  0
    0.2972   -9.2899    0.6047 C   0  0  0  0  0  0  0  0  0  0  0  0
    0.3907  -10.0024   -0.6231 N   0  0  0  0  0  0  0  0  0  0  0  0
   -0.7879  -10.4835   -1.2286 C   0  0  0  0  0  0  0  0  0  0  0  0
    1.6028  -10.4612   -1.1394 C   0  0  0  0  0  0  0  0  0  0  0  0
    1.6192   -8.6643    0.9801 C   0  0  0  0  0  0  0  0  0  0  0  0
   -0.0540  -10.2682    1.7279 C   0  0  0  0  0  0  0  0  0  0  0  0
   -3.4012   -6.7389   -0.2254 O   0  0  0  0  0  0  0  0  0  0  0  0
   -1.2152   -4.8606    1.8442 C   0  0  0  0  0  0  0  0  0  0  0  0
   -1.0673   -3.4354    1.8729 C   0  0  0  0  0  0  0  0  0  0  0  0
   -1.5472   -0.8215    3.2864 O   0  0  0  0  0  0  0  0  0  0  0  0
   -3.2191   -0.6599    0.1229 C   0  0  0  0  0  0  0  0  0  0  0  0
   -1.5613    1.8305   -0.2136 O   0  0  0  0  0  0  0  0  0  0  0  0
    1.9282    2.4268    1.7659 C   0  0  0  0  0  0  0  0  0  0  0  0
    2.3770    1.0262    1.3191 C   0  0  0  0  0  0  0  0  0  0  0  0
    3.2467    1.2266    0.1401 C   0  0  0  0  0  0  0  0  0  0  0  0
    3.8595   -0.0028   -0.3106 N   0  0  0  0  0  0  0  0  0  0  0  0
    4.5257   -0.7736    0.7580 C   0  0  0  0  0  0  0  0  0  0  0  0
    3.6464   -0.8850    1.9916 C   0  0  0  0  0  0  0  0  0  0  0  0
    3.1215    0.4219    2.3928 O   0  0  0  0  0  0  0  0  0  0  0  0
   -0.2408    4.7045    2.4853 O   0  0  0  0  0  0  0  0  0  0  0  0
    0.6437    6.8287    0.9060 C   0  0  0  0  0  0  0  0  0  0  0  0
    1.9716    7.6185    0.9391 C   0  0  0  0  0  0  0  0  0  0  0  0
    2.8586    7.2600   -0.2383 C   0  0  0  0  0  0  0  0  0  0  0  0
    4.9486    5.9109   -1.6826 O   0  0  0  0  0  0  0  0  0  0  0  0
    4.4924    0.8533   -3.8733 C   0  0  0  0  0  0  0  0  0  0  0  0
    5.6126    0.1128   -4.1953 C   0  0  0  0  0  0  0  0  0  0  0  0
    6.1655   -0.7630   -3.1958 C   0  0  0  0  0  0  0  0  0  0  0  0
    5.5531   -0.7806   -1.9250 C   0  0  0  0  0  0  0  0  0  0  0  0
    4.4409    0.0132   -1.6048 C   0  0  0  0  0  0  0  0  0  0  0  0
    3.8765    0.8235   -2.6085 C   0  0  0  0  0  0  0  0  0  0  0  0
   -2.6562   -3.2537    3.5182 F   0  0  0  0  0  0  0  0  0  0  0  0
  1  2  1  0  0  0  0
  2  3  1  0  0  0  0
  2  5  1  0  0  0  0
  3  4  1  0  0  0  0
  5  6  4  0  0  0  0
  5 10  4  0  0  0  0
  6  7  4  0  0  0  0
  7  8  4  0  0  0  0
  8  9  4  0  0  0  0
  9 10  4  0  0  0  0
 10 11  1  0  0  0  0
 11 12  4  0  0  0  0
 11 15  4  0  0  0  0
 12 13  1  0  0  0  0
 12 68  4  0  0  0  0
 13 14  1  0  0  0  0
 15 16  1  0  0  0  0
 15 67  4  0  0  0  0
 16 17  1  0  0  0  0
 17 18  1  0  0  0  0
 17 19  1  0  0  0  0
 17 20  1  0  0  0  0
 20 21  1  0  0  0  0
 21 22  1  0  0  0  0
 22 23  1  0  0  0  0
 22 66  2  0  0  0  0
 23 24  1  0  0  0  0
 23 65  1  0  0  0  0
 24 25  1  0  0  0  0
 25 26  1  0  0  0  0
 25 63  1  0  0  0  0
 26 27  1  0  0  0  0
 26 62  2  0  0  0  0
 27 28  1  0  0  0  0
 27 55  1  0  0  0  0
 28 29  1  0  0  0  0
 29 30  1  0  0  0  0
 29 54  2  0  0  0  0
 30 31  1  0  0  0  0
 30 34  1  0  0  0  0
 31 32  1  0  0  0  0
 31 33  1  0  0  0  0
 34 35  1  0  0  0  0
 34 53  1  0  0  0  0
 35 36  1  0  0  0  0
 35 52  2  0  0  0  0
 36 37  1  0  0  0  0
 36 51  1  0  0  0  0
 36 73  1  0  0  0  0
 37 38  1  0  0  0  0
 38 39  1  0  0  0  0
 39 40  1  0  0  0  0
 39 50  1  0  0  0  0
 40 41  1  0  0  0  0
 40 49  2  0  0  0  0
 41 42  1  0  0  0  0
 42 43  1  0  0  0  0
 43 44  1  0  0  0  0
 43 47  1  0  0  0  0
 43 48  1  0  0  0  0
 44 45  1  0  0  0  0
 44 46  1  0  0  0  0
 50 51  1  0  0  0  0
 55 56  1  0  0  0  0
 56 57  1  0  0  0  0
 56 61  1  0  0  0  0
 57 58  1  0  0  0  0
 58 59  1  0  0  0  0
 58 71  1  0  0  0  0
 59 60  1  0  0  0  0
 60 61  1  0  0  0  0
 63 64  1  0  0  0  0
 64 65  1  0  0  0  0
 67 68  4  0  0  0  0
 67 72  4  0  0  0  0
 68 69  4  0  0  0  0
 69 70  4  0  0  0  0
 70 71  4  0  0  0  0
 71 72  4  0  0  0  0
M  END
$$$$
