mol_ETKDG1_89
  PyMOL3.1          3D                             0

 73 79  0  0  0  0  0  0  0  0999 V2000
    0.4479    5.0351   -0.2264 C   0  0  0  0  0  0  0  0  0  0  0  0
   -0.3047    4.7758   -1.4504 C   0  0  0  0  0  0  0  0  0  0  0  0
    0.1798    5.4668   -2.5888 O   0  0  0  0  0  0  0  0  0  0  0  0
    1.3836    5.0066   -3.1314 C   0  0  0  0  0  0  0  0  0  0  0  0
   -1.7435    5.0553   -1.3416 C   0  0  0  0  0  0  0  0  0  0  0  0
   -2.2149    6.1495   -1.9053 N   0  0  0  0  0  0  0  0  0  0  0  0
   -3.5202    6.4836   -1.8290 C   0  0  0  0  0  0  0  0  0  0  0  0
   -4.4365    5.6899   -1.1496 C   0  0  0  0  0  0  0  0  0  0  0  0
   -3.9608    4.5386   -0.5280 C   0  0  0  0  0  0  0  0  0  0  0  0
   -2.5963    4.2149   -0.6425 C   0  0  0  0  0  0  0  0  0  0  0  0
   -2.1339    2.9981   -0.0140 C   0  0  0  0  0  0  0  0  0  0  0  0
   -1.8969    2.8899    1.3127 N   0  0  0  0  0  0  0  0  0  0  0  0
   -1.9678    3.9808    2.3380 C   0  0  0  0  0  0  0  0  0  0  0  0
   -3.0833    3.8364    3.2614 C   0  0  0  0  0  0  0  0  0  0  0  0
   -1.8115    1.7862   -0.6574 C   0  0  0  0  0  0  0  0  0  0  0  0
   -1.6912    1.4701   -2.1153 C   0  0  0  0  0  0  0  0  0  0  0  0
   -3.0015    1.0447   -2.8509 C   0  0  0  0  0  0  0  0  0  0  0  0
   -2.6878    0.8513   -4.3237 C   0  0  0  0  0  0  0  0  0  0  0  0
   -4.0550    2.0810   -2.8417 C   0  0  0  0  0  0  0  0  0  0  0  0
   -3.5058   -0.2009   -2.2503 C   0  0  0  0  0  0  0  0  0  0  0  0
   -2.9279   -1.4749   -2.7788 O   0  0  0  0  0  0  0  0  0  0  0  0
   -3.6934   -2.6445   -2.9843 C   0  0  0  0  0  0  0  0  0  0  0  0
   -3.0035   -3.8835   -3.4574 C   0  0  0  0  0  0  0  0  0  0  0  0
   -1.5962   -3.6741   -3.6216 N   0  0  0  0  0  0  0  0  0  0  0  0
   -0.8664   -4.7543   -4.0911 N   0  0  0  0  0  0  0  0  0  0  0  0
    0.2234   -5.2054   -3.4322 C   0  0  0  0  0  0  0  0  0  0  0  0
    0.6809   -4.4784   -2.2113 C   0  0  0  0  0  0  0  0  0  0  0  0
    2.1083   -4.6203   -2.0489 N   0  0  0  0  0  0  0  0  0  0  0  0
    2.9689   -3.6024   -2.1187 C   0  0  0  0  0  0  0  0  0  0  0  0
    4.3773   -3.9253   -1.7787 C   0  0  0  0  0  0  0  0  0  0  0  0
    5.3681   -3.8231   -2.9509 C   0  0  0  0  0  0  0  0  0  0  0  0
    6.6215   -4.5761   -2.7267 C   0  0  0  0  0  0  0  0  0  0  0  0
    4.7756   -3.9629   -4.2910 C   0  0  0  0  0  0  0  0  0  0  0  0
    4.7671   -3.0819   -0.6650 N   0  0  0  0  0  0  0  0  0  0  0  0
    4.4745   -3.5200    0.5896 C   0  0  0  0  0  0  0  0  0  0  0  0
    4.7669   -2.7580    1.8425 C   0  0  0  0  0  0  0  0  0  0  0  0
    3.6547   -1.7396    2.0313 C   0  0  0  0  0  0  0  0  0  0  0  0
    3.8184   -0.9945    3.3130 C   0  0  0  0  0  0  0  0  0  0  0  0
    3.9486   -1.9672    4.4005 N   0  0  0  0  0  0  0  0  0  0  0  0
    3.1185   -2.0573    5.4650 C   0  0  0  0  0  0  0  0  0  0  0  0
    2.1598   -1.0989    5.7546 C   0  0  0  0  0  0  0  0  0  0  0  0
    1.4147   -0.3708    6.2351 C   0  0  0  0  0  0  0  0  0  0  0  0
    0.5215    0.5865    6.7635 C   0  0  0  0  0  0  0  0  0  0  0  0
    0.7989    0.7329    8.1715 N   0  0  0  0  0  0  0  0  0  0  0  0
    0.4866   -0.3530    9.0251 C   0  0  0  0  0  0  0  0  0  0  0  0
    1.8276    1.6022    8.5949 C   0  0  0  0  0  0  0  0  0  0  0  0
   -0.9038    0.1071    6.5698 C   0  0  0  0  0  0  0  0  0  0  0  0
    0.6636    1.8888    6.0458 C   0  0  0  0  0  0  0  0  0  0  0  0
    3.2023   -3.0348    6.2263 O   0  0  0  0  0  0  0  0  0  0  0  0
    4.9957   -2.9390    4.2872 C   0  0  0  0  0  0  0  0  0  0  0  0
    4.8144   -3.7001    3.0472 C   0  0  0  0  0  0  0  0  0  0  0  0
    3.9062   -4.6248    0.6975 O   0  0  0  0  0  0  0  0  0  0  0  0
    5.3342   -1.7573   -0.9328 C   0  0  0  0  0  0  0  0  0  0  0  0
    2.5691   -2.4677   -2.3215 O   0  0  0  0  0  0  0  0  0  0  0  0
   -0.0204   -5.0993   -0.9424 C   0  0  0  0  0  0  0  0  0  0  0  0
    0.3092   -4.3540    0.3652 C   0  0  0  0  0  0  0  0  0  0  0  0
   -0.5738   -3.1710    0.3950 C   0  0  0  0  0  0  0  0  0  0  0  0
   -0.4023   -2.4217    1.6009 N   0  0  0  0  0  0  0  0  0  0  0  0
   -0.5340   -3.2172    2.8301 C   0  0  0  0  0  0  0  0  0  0  0  0
    0.2841   -4.5062    2.7369 C   0  0  0  0  0  0  0  0  0  0  0  0
    0.0101   -5.2144    1.4855 O   0  0  0  0  0  0  0  0  0  0  0  0
    0.8259   -6.2236   -3.7903 O   0  0  0  0  0  0  0  0  0  0  0  0
   -1.3046   -5.3217   -5.3601 C   0  0  0  0  0  0  0  0  0  0  0  0
   -2.8105   -5.6028   -5.3054 C   0  0  0  0  0  0  0  0  0  0  0  0
   -3.6015   -4.4065   -4.7820 C   0  0  0  0  0  0  0  0  0  0  0  0
   -4.9336   -2.7605   -2.8225 O   0  0  0  0  0  0  0  0  0  0  0  0
   -1.4661    0.9134    0.3929 C   0  0  0  0  0  0  0  0  0  0  0  0
   -1.5102    1.6354    1.5739 C   0  0  0  0  0  0  0  0  0  0  0  0
   -1.1396    0.9949    2.8010 C   0  0  0  0  0  0  0  0  0  0  0  0
   -0.7648   -0.3407    2.7529 C   0  0  0  0  0  0  0  0  0  0  0  0
   -0.7576   -1.0677    1.5810 C   0  0  0  0  0  0  0  0  0  0  0  0
   -1.0837   -0.4315    0.3532 C   0  0  0  0  0  0  0  0  0  0  0  0
    5.9983   -2.1430    1.7910 F   0  0  0  0  0  0  0  0  0  0  0  0
  1  2  1  0  0  0  0
  2  3  1  0  0  0  0
  2  5  1  0  0  0  0
  3  4  1  0  0  0  0
  5  6  4  0  0  0  0
  5 10  4  0  0  0  0
  6  7  4  0  0  0  0
  7  8  4  0  0  0  0
  8  9  4  0  0  0  0
  9 10  4  0  0  0  0
 10 11  1  0  0  0  0
 11 12  4  0  0  0  0
 11 15  4  0  0  0  0
 12 13  1  0  0  0  0
 12 68  4  0  0  0  0
 13 14  1  0  0  0  0
 15 16  1  0  0  0  0
 15 67  4  0  0  0  0
 16 17  1  0  0  0  0
 17 18  1  0  0  0  0
 17 19  1  0  0  0  0
 17 20  1  0  0  0  0
 20 21  1  0  0  0  0
 21 22  1  0  0  0  0
 22 23  1  0  0  0  0
 22 66  2  0  0  0  0
 23 24  1  0  0  0  0
 23 65  1  0  0  0  0
 24 25  1  0  0  0  0
 25 26  1  0  0  0  0
 25 63  1  0  0  0  0
 26 27  1  0  0  0  0
 26 62  2  0  0  0  0
 27 28  1  0  0  0  0
 27 55  1  0  0  0  0
 28 29  1  0  0  0  0
 29 30  1  0  0  0  0
 29 54  2  0  0  0  0
 30 31  1  0  0  0  0
 30 34  1  0  0  0  0
 31 32  1  0  0  0  0
 31 33  1  0  0  0  0
 34 35  1  0  0  0  0
 34 53  1  0  0  0  0
 35 36  1  0  0  0  0
 35 52  2  0  0  0  0
 36 37  1  0  0  0  0
 36 51  1  0  0  0  0
 36 73  1  0  0  0  0
 37 38  1  0  0  0  0
 38 39  1  0  0  0  0
 39 40  1  0  0  0  0
 39 50  1  0  0  0  0
 40 41  1  0  0  0  0
 40 49  2  0  0  0  0
 41 42  1  0  0  0  0
 42 43  1  0  0  0  0
 43 44  1  0  0  0  0
 43 47  1  0  0  0  0
 43 48  1  0  0  0  0
 44 45  1  0  0  0  0
 44 46  1  0  0  0  0
 50 51  1  0  0  0  0
 55 56  1  0  0  0  0
 56 57  1  0  0  0  0
 56 61  1  0  0  0  0
 57 58  1  0  0  0  0
 58 59  1  0  0  0  0
 58 71  1  0  0  0  0
 59 60  1  0  0  0  0
 60 61  1  0  0  0  0
 63 64  1  0  0  0  0
 64 65  1  0  0  0  0
 67 68  4  0  0  0  0
 67 72  4  0  0  0  0
 68 69  4  0  0  0  0
 69 70  4  0  0  0  0
 70 71  4  0  0  0  0
 71 72  4  0  0  0  0
M  END
$$$$
