mol_bioactive_22
  PyMOL3.1          3D                             0

 73 79  0  0  0  0  0  0  0  0999 V2000
   -1.5493   -4.0055   -4.1829 C   0  0  0  0  0  0  0  0  0  0  0  0
   -0.9940   -3.0875   -5.1679 C   0  0  0  0  0  0  0  0  0  0  0  0
    0.2312   -2.4570   -4.7956 O   0  0  0  0  0  0  0  0  0  0  0  0
    1.3198   -3.2053   -4.3456 C   0  0  0  0  0  0  0  0  0  0  0  0
   -1.8349   -1.9739   -5.6031 C   0  0  0  0  0  0  0  0  0  0  0  0
   -1.7969   -2.0694   -6.9145 N   0  0  0  0  0  0  0  0  0  0  0  0
   -2.5217   -1.2992   -7.6944 C   0  0  0  0  0  0  0  0  0  0  0  0
   -3.3976   -0.3690   -7.1804 C   0  0  0  0  0  0  0  0  0  0  0  0
   -3.4859   -0.2351   -5.7907 C   0  0  0  0  0  0  0  0  0  0  0  0
   -2.6842   -1.0366   -4.9889 C   0  0  0  0  0  0  0  0  0  0  0  0
   -2.7778   -0.8526   -3.5570 C   0  0  0  0  0  0  0  0  0  0  0  0
   -3.7733   -1.3906   -2.8113 N   0  0  0  0  0  0  0  0  0  0  0  0
   -4.9017   -2.2585   -3.2812 C   0  0  0  0  0  0  0  0  0  0  0  0
   -6.1975   -1.5745   -3.2794 C   0  0  0  0  0  0  0  0  0  0  0  0
   -1.8667   -0.1371   -2.7289 C   0  0  0  0  0  0  0  0  0  0  0  0
   -0.5622    0.5505   -3.0406 C   0  0  0  0  0  0  0  0  0  0  0  0
   -0.6596    2.0913   -3.4332 C   0  0  0  0  0  0  0  0  0  0  0  0
   -1.4802    2.3188   -4.6799 C   0  0  0  0  0  0  0  0  0  0  0  0
    0.7247    2.5632   -3.7737 C   0  0  0  0  0  0  0  0  0  0  0  0
   -1.2370    2.9396   -2.2955 C   0  0  0  0  0  0  0  0  0  0  0  0
   -0.2530    3.3050   -1.2046 O   0  0  0  0  0  0  0  0  0  0  0  0
   -0.0567    4.6333   -0.6834 C   0  0  0  0  0  0  0  0  0  0  0  0
    0.9591    4.8644    0.4369 C   0  0  0  0  0  0  0  0  0  0  0  0
    1.8479    3.7400    0.5671 N   0  0  0  0  0  0  0  0  0  0  0  0
    2.8674    3.8199    1.5270 N   0  0  0  0  0  0  0  0  0  0  0  0
    3.0127    2.8620    2.4973 C   0  0  0  0  0  0  0  0  0  0  0  0
    2.0274    1.7325    2.5475 C   0  0  0  0  0  0  0  0  0  0  0  0
    2.6525    0.4785    2.9613 N   0  0  0  0  0  0  0  0  0  0  0  0
    3.0883   -0.4680    2.1322 C   0  0  0  0  0  0  0  0  0  0  0  0
    3.5611   -1.7410    2.7717 C   0  0  0  0  0  0  0  0  0  0  0  0
    5.1224   -1.8955    2.7858 C   0  0  0  0  0  0  0  0  0  0  0  0
    5.5944   -3.0346    3.6316 C   0  0  0  0  0  0  0  0  0  0  0  0
    5.8367   -0.6163    3.0915 C   0  0  0  0  0  0  0  0  0  0  0  0
    2.8832   -2.8284    2.0583 N   0  0  0  0  0  0  0  0  0  0  0  0
    1.5786   -3.1053    2.3923 C   0  0  0  0  0  0  0  0  0  0  0  0
    0.7081   -4.1048    1.6798 C   0  0  0  0  0  0  0  0  0  0  0  0
    0.2707   -3.4540    0.3853 C   0  0  0  0  0  0  0  0  0  0  0  0
   -0.5733   -4.3630   -0.4167 C   0  0  0  0  0  0  0  0  0  0  0  0
   -1.7077   -4.8320    0.3808 N   0  0  0  0  0  0  0  0  0  0  0  0
   -2.9704   -4.7734   -0.1382 C   0  0  0  0  0  0  0  0  0  0  0  0
   -4.0951   -5.0496    0.6317 C   0  0  0  0  0  0  0  0  0  0  0  0
   -5.1220   -5.3107    1.1077 C   0  0  0  0  0  0  0  0  0  0  0  0
   -6.2799   -5.6613    1.8144 C   0  0  0  0  0  0  0  0  0  0  0  0
   -7.2360   -6.2149    0.8991 N   0  0  0  0  0  0  0  0  0  0  0  0
   -8.3810   -5.5190    0.4956 C   0  0  0  0  0  0  0  0  0  0  0  0
   -6.9292   -7.4181    0.2062 C   0  0  0  0  0  0  0  0  0  0  0  0
   -6.8185   -4.4456    2.5325 C   0  0  0  0  0  0  0  0  0  0  0  0
   -5.9521   -6.6894    2.8862 C   0  0  0  0  0  0  0  0  0  0  0  0
   -3.1380   -4.4485   -1.3116 O   0  0  0  0  0  0  0  0  0  0  0  0
   -1.4272   -5.3481    1.6914 C   0  0  0  0  0  0  0  0  0  0  0  0
   -0.5412   -4.4903    2.4854 C   0  0  0  0  0  0  0  0  0  0  0  0
    1.0772   -2.4597    3.3328 O   0  0  0  0  0  0  0  0  0  0  0  0
    3.5634   -3.4709    0.9228 C   0  0  0  0  0  0  0  0  0  0  0  0
    2.9741   -0.3338    0.9309 O   0  0  0  0  0  0  0  0  0  0  0  0
    0.9005    2.1100    3.5804 C   0  0  0  0  0  0  0  0  0  0  0  0
   -0.5760    1.6705    3.4431 C   0  0  0  0  0  0  0  0  0  0  0  0
   -0.8437    0.9084    2.2186 C   0  0  0  0  0  0  0  0  0  0  0  0
   -2.1494    0.3177    2.1522 N   0  0  0  0  0  0  0  0  0  0  0  0
   -2.9590    0.2329    3.3269 C   0  0  0  0  0  0  0  0  0  0  0  0
   -2.3037    0.5391    4.6194 C   0  0  0  0  0  0  0  0  0  0  0  0
   -0.9143    0.9072    4.6195 O   0  0  0  0  0  0  0  0  0  0  0  0
    3.8955    2.9440    3.3682 O   0  0  0  0  0  0  0  0  0  0  0  0
    3.7726    4.9504    1.3968 C   0  0  0  0  0  0  0  0  0  0  0  0
    2.9533    6.2482    1.2526 C   0  0  0  0  0  0  0  0  0  0  0  0
    1.8347    6.1339    0.2171 C   0  0  0  0  0  0  0  0  0  0  0  0
   -0.6896    5.6157   -1.0888 O   0  0  0  0  0  0  0  0  0  0  0  0
   -2.4091   -0.2803   -1.4464 C   0  0  0  0  0  0  0  0  0  0  0  0
   -3.5658   -1.0482   -1.5390 C   0  0  0  0  0  0  0  0  0  0  0  0
   -4.2905   -1.3720   -0.3506 C   0  0  0  0  0  0  0  0  0  0  0  0
   -3.7817   -0.9087    0.8520 C   0  0  0  0  0  0  0  0  0  0  0  0
   -2.6238   -0.1331    0.9239 C   0  0  0  0  0  0  0  0  0  0  0  0
   -1.9148    0.1860   -0.2393 C   0  0  0  0  0  0  0  0  0  0  0  0
    1.3902   -5.2835    1.4655 F   0  0  0  0  0  0  0  0  0  0  0  0
  1  2  1  0  0  0  0
  2  3  1  0  0  0  0
  2  5  1  0  0  0  0
  3  4  1  0  0  0  0
  5  6  4  0  0  0  0
  5 10  4  0  0  0  0
  6  7  4  0  0  0  0
  7  8  4  0  0  0  0
  8  9  4  0  0  0  0
  9 10  4  0  0  0  0
 10 11  1  0  0  0  0
 11 12  4  0  0  0  0
 11 15  4  0  0  0  0
 12 13  1  0  0  0  0
 12 68  4  0  0  0  0
 13 14  1  0  0  0  0
 15 16  1  0  0  0  0
 15 67  4  0  0  0  0
 16 17  1  0  0  0  0
 17 18  1  0  0  0  0
 17 19  1  0  0  0  0
 17 20  1  0  0  0  0
 20 21  1  0  0  0  0
 21 22  1  0  0  0  0
 22 23  1  0  0  0  0
 22 66  2  0  0  0  0
 23 24  1  0  0  0  0
 23 65  1  0  0  0  0
 24 25  1  0  0  0  0
 25 26  1  0  0  0  0
 25 63  1  0  0  0  0
 26 27  1  0  0  0  0
 26 62  2  0  0  0  0
 27 28  1  0  0  0  0
 27 55  1  0  0  0  0
 28 29  1  0  0  0  0
 29 30  1  0  0  0  0
 29 54  2  0  0  0  0
 30 31  1  0  0  0  0
 30 34  1  0  0  0  0
 31 32  1  0  0  0  0
 31 33  1  0  0  0  0
 34 35  1  0  0  0  0
 34 53  1  0  0  0  0
 35 36  1  0  0  0  0
 35 52  2  0  0  0  0
 36 37  1  0  0  0  0
 36 51  1  0  0  0  0
 36 73  1  0  0  0  0
 37 38  1  0  0  0  0
 38 39  1  0  0  0  0
 39 40  1  0  0  0  0
 39 50  1  0  0  0  0
 40 41  1  0  0  0  0
 40 49  2  0  0  0  0
 41 42  1  0  0  0  0
 42 43  1  0  0  0  0
 43 44  1  0  0  0  0
 43 47  1  0  0  0  0
 43 48  1  0  0  0  0
 44 45  1  0  0  0  0
 44 46  1  0  0  0  0
 50 51  1  0  0  0  0
 55 56  1  0  0  0  0
 56 57  1  0  0  0  0
 56 61  1  0  0  0  0
 57 58  1  0  0  0  0
 58 59  1  0  0  0  0
 58 71  1  0  0  0  0
 59 60  1  0  0  0  0
 60 61  1  0  0  0  0
 63 64  1  0  0  0  0
 64 65  1  0  0  0  0
 67 68  4  0  0  0  0
 67 72  4  0  0  0  0
 68 69  4  0  0  0  0
 69 70  4  0  0  0  0
 70 71  4  0  0  0  0
 71 72  4  0  0  0  0
M  END
$$$$
