mol_ETKDG2_137
  PyMOL3.1          3D                             0

 73 79  0  0  0  0  0  0  0  0999 V2000
   -1.2897   -4.7334    4.5191 C   0  0  0  0  0  0  0  0  0  0  0  0
   -1.9398   -3.4093    4.4431 C   0  0  0  0  0  0  0  0  0  0  0  0
   -3.3566   -3.4416    4.3017 O   0  0  0  0  0  0  0  0  0  0  0  0
   -3.8734   -3.7810    3.0445 C   0  0  0  0  0  0  0  0  0  0  0  0
   -1.6483   -2.5605    5.6164 C   0  0  0  0  0  0  0  0  0  0  0  0
   -2.3962   -2.7273    6.6963 N   0  0  0  0  0  0  0  0  0  0  0  0
   -2.1792   -2.0102    7.8179 C   0  0  0  0  0  0  0  0  0  0  0  0
   -1.1464   -1.0673    7.8980 C   0  0  0  0  0  0  0  0  0  0  0  0
   -0.3314   -0.8910    6.7745 C   0  0  0  0  0  0  0  0  0  0  0  0
   -0.6017   -1.6363    5.6203 C   0  0  0  0  0  0  0  0  0  0  0  0
    0.2240   -1.4088    4.4590 C   0  0  0  0  0  0  0  0  0  0  0  0
    1.4813   -1.8985    4.3236 N   0  0  0  0  0  0  0  0  0  0  0  0
    2.2198   -2.8041    5.2654 C   0  0  0  0  0  0  0  0  0  0  0  0
    3.3044   -2.1659    5.9871 C   0  0  0  0  0  0  0  0  0  0  0  0
   -0.1708   -0.7174    3.2842 C   0  0  0  0  0  0  0  0  0  0  0  0
   -1.4907   -0.1275    2.8808 C   0  0  0  0  0  0  0  0  0  0  0  0
   -1.7621    1.3726    3.3133 C   0  0  0  0  0  0  0  0  0  0  0  0
   -2.0356    1.4979    4.8061 C   0  0  0  0  0  0  0  0  0  0  0  0
   -3.0412    1.7850    2.6494 C   0  0  0  0  0  0  0  0  0  0  0  0
   -0.6145    2.3105    2.9342 C   0  0  0  0  0  0  0  0  0  0  0  0
   -0.7464    2.9257    1.5510 O   0  0  0  0  0  0  0  0  0  0  0  0
   -0.7441    4.3261    1.2790 C   0  0  0  0  0  0  0  0  0  0  0  0
   -0.9280    4.7945   -0.1657 C   0  0  0  0  0  0  0  0  0  0  0  0
   -1.6314    3.8031   -0.9212 N   0  0  0  0  0  0  0  0  0  0  0  0
   -1.9559    4.0911   -2.2449 N   0  0  0  0  0  0  0  0  0  0  0  0
   -1.6189    3.2318   -3.2556 C   0  0  0  0  0  0  0  0  0  0  0  0
   -0.8507    1.9936   -2.9108 C   0  0  0  0  0  0  0  0  0  0  0  0
   -1.2861    0.8490   -3.6832 N   0  0  0  0  0  0  0  0  0  0  0  0
   -2.0775   -0.1118   -3.1890 C   0  0  0  0  0  0  0  0  0  0  0  0
   -2.2712   -1.3147   -4.0501 C   0  0  0  0  0  0  0  0  0  0  0  0
   -3.6258   -1.3611   -4.8243 C   0  0  0  0  0  0  0  0  0  0  0  0
   -3.6210   -2.3807   -5.9240 C   0  0  0  0  0  0  0  0  0  0  0  0
   -4.1146   -0.0217   -5.2703 C   0  0  0  0  0  0  0  0  0  0  0  0
   -2.1005   -2.4658   -3.1590 N   0  0  0  0  0  0  0  0  0  0  0  0
   -0.8142   -2.8759   -2.8716 C   0  0  0  0  0  0  0  0  0  0  0  0
   -0.4678   -3.9745   -1.8990 C   0  0  0  0  0  0  0  0  0  0  0  0
   -0.5590   -3.3745   -0.5123 C   0  0  0  0  0  0  0  0  0  0  0  0
   -0.2511   -4.3913    0.5342 C   0  0  0  0  0  0  0  0  0  0  0  0
    1.0696   -4.9768    0.2684 N   0  0  0  0  0  0  0  0  0  0  0  0
    2.0164   -5.0047    1.2541 C   0  0  0  0  0  0  0  0  0  0  0  0
    3.3719   -5.0625    0.9643 C   0  0  0  0  0  0  0  0  0  0  0  0
    4.5334   -5.0966    0.8747 C   0  0  0  0  0  0  0  0  0  0  0  0
    5.9119   -5.1024    0.6440 C   0  0  0  0  0  0  0  0  0  0  0  0
    6.6205   -4.9427    1.8701 N   0  0  0  0  0  0  0  0  0  0  0  0
    7.7419   -4.1172    1.9866 C   0  0  0  0  0  0  0  0  0  0  0  0
    6.3396   -5.8064    2.9606 C   0  0  0  0  0  0  0  0  0  0  0  0
    6.2357   -3.9915   -0.3383 C   0  0  0  0  0  0  0  0  0  0  0  0
    6.3462   -6.4100   -0.0175 C   0  0  0  0  0  0  0  0  0  0  0  0
    1.6842   -4.9351    2.4333 O   0  0  0  0  0  0  0  0  0  0  0  0
    1.3044   -5.4934   -1.0545 C   0  0  0  0  0  0  0  0  0  0  0  0
    0.9552   -4.5208   -2.1153 C   0  0  0  0  0  0  0  0  0  0  0  0
    0.1202   -2.2775   -3.4281 O   0  0  0  0  0  0  0  0  0  0  0  0
   -3.2899   -3.0523   -2.5101 C   0  0  0  0  0  0  0  0  0  0  0  0
   -2.4948   -0.0336   -2.0456 O   0  0  0  0  0  0  0  0  0  0  0  0
    0.6941    2.2149   -3.1540 C   0  0  0  0  0  0  0  0  0  0  0  0
    1.5895    1.0165   -2.7361 C   0  0  0  0  0  0  0  0  0  0  0  0
    1.6837    1.0276   -1.2499 C   0  0  0  0  0  0  0  0  0  0  0  0
    2.5694   -0.0040   -0.7599 N   0  0  0  0  0  0  0  0  0  0  0  0
    3.9102    0.0034   -1.3718 C   0  0  0  0  0  0  0  0  0  0  0  0
    3.8037    0.1136   -2.8989 C   0  0  0  0  0  0  0  0  0  0  0  0
    2.9142    1.2158   -3.3007 O   0  0  0  0  0  0  0  0  0  0  0  0
   -1.8892    3.4738   -4.4433 O   0  0  0  0  0  0  0  0  0  0  0  0
   -2.7319    5.3046   -2.4683 C   0  0  0  0  0  0  0  0  0  0  0  0
   -2.0645    6.4792   -1.7186 C   0  0  0  0  0  0  0  0  0  0  0  0
   -1.7270    6.1295   -0.2659 C   0  0  0  0  0  0  0  0  0  0  0  0
   -0.5808    5.1971    2.1541 O   0  0  0  0  0  0  0  0  0  0  0  0
    0.9695   -0.7782    2.4627 C   0  0  0  0  0  0  0  0  0  0  0  0
    1.9507   -1.5015    3.1310 C   0  0  0  0  0  0  0  0  0  0  0  0
    3.2101   -1.7233    2.4860 C   0  0  0  0  0  0  0  0  0  0  0  0
    3.3690   -1.2139    1.1919 C   0  0  0  0  0  0  0  0  0  0  0  0
    2.3705   -0.4965    0.5387 C   0  0  0  0  0  0  0  0  0  0  0  0
    1.1340   -0.2781    1.1732 C   0  0  0  0  0  0  0  0  0  0  0  0
   -1.3082   -5.0584   -2.0548 F   0  0  0  0  0  0  0  0  0  0  0  0
  1  2  1  0  0  0  0
  2  3  1  0  0  0  0
  2  5  1  0  0  0  0
  3  4  1  0  0  0  0
  5  6  4  0  0  0  0
  5 10  4  0  0  0  0
  6  7  4  0  0  0  0
  7  8  4  0  0  0  0
  8  9  4  0  0  0  0
  9 10  4  0  0  0  0
 10 11  1  0  0  0  0
 11 12  4  0  0  0  0
 11 15  4  0  0  0  0
 12 13  1  0  0  0  0
 12 68  4  0  0  0  0
 13 14  1  0  0  0  0
 15 16  1  0  0  0  0
 15 67  4  0  0  0  0
 16 17  1  0  0  0  0
 17 18  1  0  0  0  0
 17 19  1  0  0  0  0
 17 20  1  0  0  0  0
 20 21  1  0  0  0  0
 21 22  1  0  0  0  0
 22 23  1  0  0  0  0
 22 66  2  0  0  0  0
 23 24  1  0  0  0  0
 23 65  1  0  0  0  0
 24 25  1  0  0  0  0
 25 26  1  0  0  0  0
 25 63  1  0  0  0  0
 26 27  1  0  0  0  0
 26 62  2  0  0  0  0
 27 28  1  0  0  0  0
 27 55  1  0  0  0  0
 28 29  1  0  0  0  0
 29 30  1  0  0  0  0
 29 54  2  0  0  0  0
 30 31  1  0  0  0  0
 30 34  1  0  0  0  0
 31 32  1  0  0  0  0
 31 33  1  0  0  0  0
 34 35  1  0  0  0  0
 34 53  1  0  0  0  0
 35 36  1  0  0  0  0
 35 52  2  0  0  0  0
 36 37  1  0  0  0  0
 36 51  1  0  0  0  0
 36 73  1  0  0  0  0
 37 38  1  0  0  0  0
 38 39  1  0  0  0  0
 39 40  1  0  0  0  0
 39 50  1  0  0  0  0
 40 41  1  0  0  0  0
 40 49  2  0  0  0  0
 41 42  1  0  0  0  0
 42 43  1  0  0  0  0
 43 44  1  0  0  0  0
 43 47  1  0  0  0  0
 43 48  1  0  0  0  0
 44 45  1  0  0  0  0
 44 46  1  0  0  0  0
 50 51  1  0  0  0  0
 55 56  1  0  0  0  0
 56 57  1  0  0  0  0
 56 61  1  0  0  0  0
 57 58  1  0  0  0  0
 58 59  1  0  0  0  0
 58 71  1  0  0  0  0
 59 60  1  0  0  0  0
 60 61  1  0  0  0  0
 63 64  1  0  0  0  0
 64 65  1  0  0  0  0
 67 68  4  0  0  0  0
 67 72  4  0  0  0  0
 68 69  4  0  0  0  0
 69 70  4  0  0  0  0
 70 71  4  0  0  0  0
 71 72  4  0  0  0  0
M  END
$$$$
