mol_ETKDG3_200
  PyMOL3.1          3D                             0

 73 79  0  0  0  0  0  0  0  0999 V2000
   -7.0807    1.2995    1.2152 C   0  0  0  0  0  0  0  0  0  0  0  0
   -5.7648    1.7499    1.7264 C   0  0  0  0  0  0  0  0  0  0  0  0
   -5.3594    1.1829    2.9538 O   0  0  0  0  0  0  0  0  0  0  0  0
   -4.9889   -0.1780    2.9515 C   0  0  0  0  0  0  0  0  0  0  0  0
   -5.6755    3.2108    1.8653 C   0  0  0  0  0  0  0  0  0  0  0  0
   -6.3221    3.7717    2.8737 N   0  0  0  0  0  0  0  0  0  0  0  0
   -6.3464    5.1119    3.0271 C   0  0  0  0  0  0  0  0  0  0  0  0
   -5.6998    5.9642    2.1268 C   0  0  0  0  0  0  0  0  0  0  0  0
   -5.0230    5.3904    1.0441 C   0  0  0  0  0  0  0  0  0  0  0  0
   -4.9879    3.9925    0.9434 C   0  0  0  0  0  0  0  0  0  0  0  0
   -4.2486    3.4051   -0.1457 C   0  0  0  0  0  0  0  0  0  0  0  0
   -4.7265    3.3272   -1.4138 N   0  0  0  0  0  0  0  0  0  0  0  0
   -6.0662    3.7764   -1.9203 C   0  0  0  0  0  0  0  0  0  0  0  0
   -5.9997    4.9675   -2.7666 C   0  0  0  0  0  0  0  0  0  0  0  0
   -2.9813    2.7643   -0.0422 C   0  0  0  0  0  0  0  0  0  0  0  0
   -2.1095    2.4747    1.1645 C   0  0  0  0  0  0  0  0  0  0  0  0
   -1.0961    3.6277    1.6060 C   0  0  0  0  0  0  0  0  0  0  0  0
   -1.7465    4.9661    1.8147 C   0  0  0  0  0  0  0  0  0  0  0  0
   -0.5202    3.2598    2.9567 C   0  0  0  0  0  0  0  0  0  0  0  0
   -0.0002    3.7976    0.6015 C   0  0  0  0  0  0  0  0  0  0  0  0
    1.1594    2.8492    0.6501 O   0  0  0  0  0  0  0  0  0  0  0  0
    2.4975    3.2178    0.2872 C   0  0  0  0  0  0  0  0  0  0  0  0
    3.5683    2.1544    0.2467 C   0  0  0  0  0  0  0  0  0  0  0  0
    3.0315    0.8796    0.5987 N   0  0  0  0  0  0  0  0  0  0  0  0
    3.8918   -0.2044    0.6110 N   0  0  0  0  0  0  0  0  0  0  0  0
    3.5920   -1.3387   -0.1018 C   0  0  0  0  0  0  0  0  0  0  0  0
    2.3209   -1.3751   -0.8972 C   0  0  0  0  0  0  0  0  0  0  0  0
    1.6898   -2.6748   -0.8475 N   0  0  0  0  0  0  0  0  0  0  0  0
    0.6320   -2.9398   -0.0644 C   0  0  0  0  0  0  0  0  0  0  0  0
   -0.0058   -4.2747   -0.2517 C   0  0  0  0  0  0  0  0  0  0  0  0
    0.3928   -5.3631    0.7865 C   0  0  0  0  0  0  0  0  0  0  0  0
    0.0552   -6.7451    0.3308 C   0  0  0  0  0  0  0  0  0  0  0  0
    1.7819   -5.2310    1.3051 C   0  0  0  0  0  0  0  0  0  0  0  0
   -1.4526   -4.0518   -0.2941 N   0  0  0  0  0  0  0  0  0  0  0  0
   -2.0336   -3.6593   -1.4859 C   0  0  0  0  0  0  0  0  0  0  0  0
   -3.4926   -3.3110   -1.6639 C   0  0  0  0  0  0  0  0  0  0  0  0
   -3.9434   -3.2501   -3.1350 C   0  0  0  0  0  0  0  0  0  0  0  0
   -5.3520   -2.7608   -3.2564 C   0  0  0  0  0  0  0  0  0  0  0  0
   -5.5718   -1.5316   -2.4655 N   0  0  0  0  0  0  0  0  0  0  0  0
   -6.2068   -0.4138   -2.9208 C   0  0  0  0  0  0  0  0  0  0  0  0
   -6.4643   -0.1720   -4.2491 C   0  0  0  0  0  0  0  0  0  0  0  0
   -6.7918    0.1520   -5.3166 C   0  0  0  0  0  0  0  0  0  0  0  0
   -7.0785    0.3756   -6.6718 C   0  0  0  0  0  0  0  0  0  0  0  0
   -8.3257   -0.1969   -7.0727 N   0  0  0  0  0  0  0  0  0  0  0  0
   -9.2902   -0.5397   -6.1202 C   0  0  0  0  0  0  0  0  0  0  0  0
   -8.7588   -0.1532   -8.4097 C   0  0  0  0  0  0  0  0  0  0  0  0
   -7.0976    1.8779   -6.9350 C   0  0  0  0  0  0  0  0  0  0  0  0
   -5.9621   -0.2377   -7.5013 C   0  0  0  0  0  0  0  0  0  0  0  0
   -6.5345    0.4685   -2.1065 O   0  0  0  0  0  0  0  0  0  0  0  0
   -5.0917   -1.5209   -1.1249 C   0  0  0  0  0  0  0  0  0  0  0  0
   -3.6756   -1.9322   -1.0533 C   0  0  0  0  0  0  0  0  0  0  0  0
   -1.2843   -3.5565   -2.4795 O   0  0  0  0  0  0  0  0  0  0  0  0
   -2.2198   -4.1352    0.9669 C   0  0  0  0  0  0  0  0  0  0  0  0
    0.1634   -2.0758    0.6616 O   0  0  0  0  0  0  0  0  0  0  0  0
    2.5788   -0.9898   -2.4081 C   0  0  0  0  0  0  0  0  0  0  0  0
    1.2876   -0.9297   -3.2757 C   0  0  0  0  0  0  0  0  0  0  0  0
    0.5863    0.3367   -2.9335 C   0  0  0  0  0  0  0  0  0  0  0  0
   -0.5818    0.5498   -3.7504 N   0  0  0  0  0  0  0  0  0  0  0  0
   -0.3436    0.4519   -5.2010 C   0  0  0  0  0  0  0  0  0  0  0  0
    0.4883   -0.8026   -5.5342 C   0  0  0  0  0  0  0  0  0  0  0  0
    1.6767   -0.9039   -4.6729 O   0  0  0  0  0  0  0  0  0  0  0  0
    4.3629   -2.3135   -0.1241 O   0  0  0  0  0  0  0  0  0  0  0  0
    5.0710   -0.0731    1.4720 C   0  0  0  0  0  0  0  0  0  0  0  0
    5.7680    1.2805    1.1917 C   0  0  0  0  0  0  0  0  0  0  0  0
    4.7807    2.4620    1.1639 C   0  0  0  0  0  0  0  0  0  0  0  0
    2.8710    4.3712    0.0051 O   0  0  0  0  0  0  0  0  0  0  0  0
   -2.7254    2.3416   -1.3617 C   0  0  0  0  0  0  0  0  0  0  0  0
   -3.8102    2.7045   -2.1597 C   0  0  0  0  0  0  0  0  0  0  0  0
   -3.8128    2.3530   -3.5529 C   0  0  0  0  0  0  0  0  0  0  0  0
   -2.7273    1.6313   -4.0354 C   0  0  0  0  0  0  0  0  0  0  0  0
   -1.6522    1.2760   -3.2214 C   0  0  0  0  0  0  0  0  0  0  0  0
   -1.6483    1.6232   -1.8604 C   0  0  0  0  0  0  0  0  0  0  0  0
   -4.3071   -4.2445   -1.0450 F   0  0  0  0  0  0  0  0  0  0  0  0
  1  2  1  0  0  0  0
  2  3  1  0  0  0  0
  2  5  1  0  0  0  0
  3  4  1  0  0  0  0
  5  6  4  0  0  0  0
  5 10  4  0  0  0  0
  6  7  4  0  0  0  0
  7  8  4  0  0  0  0
  8  9  4  0  0  0  0
  9 10  4  0  0  0  0
 10 11  1  0  0  0  0
 11 12  4  0  0  0  0
 11 15  4  0  0  0  0
 12 13  1  0  0  0  0
 12 68  4  0  0  0  0
 13 14  1  0  0  0  0
 15 16  1  0  0  0  0
 15 67  4  0  0  0  0
 16 17  1  0  0  0  0
 17 18  1  0  0  0  0
 17 19  1  0  0  0  0
 17 20  1  0  0  0  0
 20 21  1  0  0  0  0
 21 22  1  0  0  0  0
 22 23  1  0  0  0  0
 22 66  2  0  0  0  0
 23 24  1  0  0  0  0
 23 65  1  0  0  0  0
 24 25  1  0  0  0  0
 25 26  1  0  0  0  0
 25 63  1  0  0  0  0
 26 27  1  0  0  0  0
 26 62  2  0  0  0  0
 27 28  1  0  0  0  0
 27 55  1  0  0  0  0
 28 29  1  0  0  0  0
 29 30  1  0  0  0  0
 29 54  2  0  0  0  0
 30 31  1  0  0  0  0
 30 34  1  0  0  0  0
 31 32  1  0  0  0  0
 31 33  1  0  0  0  0
 34 35  1  0  0  0  0
 34 53  1  0  0  0  0
 35 36  1  0  0  0  0
 35 52  2  0  0  0  0
 36 37  1  0  0  0  0
 36 51  1  0  0  0  0
 36 73  1  0  0  0  0
 37 38  1  0  0  0  0
 38 39  1  0  0  0  0
 39 40  1  0  0  0  0
 39 50  1  0  0  0  0
 40 41  1  0  0  0  0
 40 49  2  0  0  0  0
 41 42  1  0  0  0  0
 42 43  1  0  0  0  0
 43 44  1  0  0  0  0
 43 47  1  0  0  0  0
 43 48  1  0  0  0  0
 44 45  1  0  0  0  0
 44 46  1  0  0  0  0
 50 51  1  0  0  0  0
 55 56  1  0  0  0  0
 56 57  1  0  0  0  0
 56 61  1  0  0  0  0
 57 58  1  0  0  0  0
 58 59  1  0  0  0  0
 58 71  1  0  0  0  0
 59 60  1  0  0  0  0
 60 61  1  0  0  0  0
 63 64  1  0  0  0  0
 64 65  1  0  0  0  0
 67 68  4  0  0  0  0
 67 72  4  0  0  0  0
 68 69  4  0  0  0  0
 69 70  4  0  0  0  0
 70 71  4  0  0  0  0
 71 72  4  0  0  0  0
M  END
$$$$
