mol_ETKDG0_302
  PyMOL3.1          3D                             0

 73 79  0  0  0  0  0  0  0  0999 V2000
   -3.7617    3.4610    0.0504 C   0  0  0  0  0  0  0  0  0  0  0  0
   -3.9850    2.9433   -1.3236 C   0  0  0  0  0  0  0  0  0  0  0  0
   -5.3392    3.1638   -1.7847 O   0  0  0  0  0  0  0  0  0  0  0  0
   -6.1490    2.0354   -1.8629 C   0  0  0  0  0  0  0  0  0  0  0  0
   -3.0930    3.5640   -2.3247 C   0  0  0  0  0  0  0  0  0  0  0  0
   -3.5597    4.6111   -2.9826 N   0  0  0  0  0  0  0  0  0  0  0  0
   -2.8191    5.2564   -3.9096 C   0  0  0  0  0  0  0  0  0  0  0  0
   -1.5134    4.8586   -4.2018 C   0  0  0  0  0  0  0  0  0  0  0  0
   -0.9929    3.7637   -3.5066 C   0  0  0  0  0  0  0  0  0  0  0  0
   -1.8009    3.0999   -2.5616 C   0  0  0  0  0  0  0  0  0  0  0  0
   -1.2237    1.9665   -1.8661 C   0  0  0  0  0  0  0  0  0  0  0  0
   -0.3150    2.0969   -0.8634 N   0  0  0  0  0  0  0  0  0  0  0  0
    0.1835    3.3668   -0.2351 C   0  0  0  0  0  0  0  0  0  0  0  0
    1.5426    3.7253   -0.6800 C   0  0  0  0  0  0  0  0  0  0  0  0
   -1.5226    0.5862   -2.0719 C   0  0  0  0  0  0  0  0  0  0  0  0
   -2.5792   -0.0714   -2.9253 C   0  0  0  0  0  0  0  0  0  0  0  0
   -2.1255   -0.4732   -4.3876 C   0  0  0  0  0  0  0  0  0  0  0  0
   -3.3793   -0.7819   -5.1975 C   0  0  0  0  0  0  0  0  0  0  0  0
   -1.4639    0.6475   -5.1028 C   0  0  0  0  0  0  0  0  0  0  0  0
   -1.1738   -1.6644   -4.3481 C   0  0  0  0  0  0  0  0  0  0  0  0
   -1.8083   -3.0050   -4.0266 O   0  0  0  0  0  0  0  0  0  0  0  0
   -1.6861   -4.1668   -4.8574 C   0  0  0  0  0  0  0  0  0  0  0  0
   -2.2774   -5.4918   -4.4061 C   0  0  0  0  0  0  0  0  0  0  0  0
   -3.1311   -5.3391   -3.2637 N   0  0  0  0  0  0  0  0  0  0  0  0
   -3.7412   -6.5024   -2.7651 N   0  0  0  0  0  0  0  0  0  0  0  0
   -3.6369   -6.8547   -1.4459 C   0  0  0  0  0  0  0  0  0  0  0  0
   -2.9009   -5.9534   -0.5059 C   0  0  0  0  0  0  0  0  0  0  0  0
   -3.5143   -5.9146    0.8086 N   0  0  0  0  0  0  0  0  0  0  0  0
   -4.3010   -4.9030    1.2337 C   0  0  0  0  0  0  0  0  0  0  0  0
   -4.7321   -4.9538    2.6663 C   0  0  0  0  0  0  0  0  0  0  0  0
   -6.2119   -5.4115    2.8726 C   0  0  0  0  0  0  0  0  0  0  0  0
   -6.5025   -5.8057    4.2830 C   0  0  0  0  0  0  0  0  0  0  0  0
   -6.6838   -6.4107    1.8705 C   0  0  0  0  0  0  0  0  0  0  0  0
   -4.4935   -3.6128    3.2219 N   0  0  0  0  0  0  0  0  0  0  0  0
   -3.2253   -3.2946    3.6614 C   0  0  0  0  0  0  0  0  0  0  0  0
   -2.8041   -1.9538    4.2144 C   0  0  0  0  0  0  0  0  0  0  0  0
   -1.4953   -1.9978    5.0191 C   0  0  0  0  0  0  0  0  0  0  0  0
   -1.0777   -0.6367    5.4420 C   0  0  0  0  0  0  0  0  0  0  0  0
   -1.1207    0.3424    4.3324 N   0  0  0  0  0  0  0  0  0  0  0  0
   -0.1547    1.2746    4.0938 C   0  0  0  0  0  0  0  0  0  0  0  0
    1.0207    1.3279    4.8138 C   0  0  0  0  0  0  0  0  0  0  0  0
    2.0100    1.5660    5.3671 C   0  0  0  0  0  0  0  0  0  0  0  0
    3.1896    1.6931    6.1260 C   0  0  0  0  0  0  0  0  0  0  0  0
    3.5744    3.0765    6.1937 N   0  0  0  0  0  0  0  0  0  0  0  0
    2.8114    3.9715    6.9777 C   0  0  0  0  0  0  0  0  0  0  0  0
    4.4416    3.6471    5.2306 C   0  0  0  0  0  0  0  0  0  0  0  0
    2.9433    1.1486    7.5331 C   0  0  0  0  0  0  0  0  0  0  0  0
    4.2903    0.8538    5.5204 C   0  0  0  0  0  0  0  0  0  0  0  0
   -0.3272    2.1162    3.1862 O   0  0  0  0  0  0  0  0  0  0  0  0
   -2.2629    0.3271    3.4830 C   0  0  0  0  0  0  0  0  0  0  0  0
   -2.6136   -1.0232    3.0291 C   0  0  0  0  0  0  0  0  0  0  0  0
   -2.3528   -4.1860    3.5680 O   0  0  0  0  0  0  0  0  0  0  0  0
   -5.5844   -2.6208    3.1923 C   0  0  0  0  0  0  0  0  0  0  0  0
   -4.5356   -3.9518    0.5042 O   0  0  0  0  0  0  0  0  0  0  0  0
   -1.3894   -6.4041   -0.3648 C   0  0  0  0  0  0  0  0  0  0  0  0
   -0.5123   -5.4245    0.4703 C   0  0  0  0  0  0  0  0  0  0  0  0
   -0.3149   -4.1947   -0.3579 C   0  0  0  0  0  0  0  0  0  0  0  0
    0.5710   -3.2465    0.2778 N   0  0  0  0  0  0  0  0  0  0  0  0
    1.8569   -3.7988    0.7094 C   0  0  0  0  0  0  0  0  0  0  0  0
    1.6633   -5.1409    1.4420 C   0  0  0  0  0  0  0  0  0  0  0  0
    0.7768   -6.0518    0.7021 O   0  0  0  0  0  0  0  0  0  0  0  0
   -4.1245   -7.9173   -1.0152 O   0  0  0  0  0  0  0  0  0  0  0  0
   -4.5464   -7.2571   -3.7235 C   0  0  0  0  0  0  0  0  0  0  0  0
   -3.7345   -7.4855   -5.0138 C   0  0  0  0  0  0  0  0  0  0  0  0
   -3.0810   -6.1997   -5.5314 C   0  0  0  0  0  0  0  0  0  0  0  0
   -1.1073   -4.1699   -5.9724 O   0  0  0  0  0  0  0  0  0  0  0  0
   -0.6595   -0.0897   -1.1817 C   0  0  0  0  0  0  0  0  0  0  0  0
    0.0548    0.8658   -0.4614 C   0  0  0  0  0  0  0  0  0  0  0  0
    0.9775    0.4374    0.5614 C   0  0  0  0  0  0  0  0  0  0  0  0
    1.1120   -0.9365    0.7769 C   0  0  0  0  0  0  0  0  0  0  0  0
    0.4012   -1.8788    0.0338 C   0  0  0  0  0  0  0  0  0  0  0  0
   -0.5084   -1.4593   -0.9573 C   0  0  0  0  0  0  0  0  0  0  0  0
   -3.7563   -1.4547    5.0731 F   0  0  0  0  0  0  0  0  0  0  0  0
  1  2  1  0  0  0  0
  2  3  1  0  0  0  0
  2  5  1  0  0  0  0
  3  4  1  0  0  0  0
  5  6  4  0  0  0  0
  5 10  4  0  0  0  0
  6  7  4  0  0  0  0
  7  8  4  0  0  0  0
  8  9  4  0  0  0  0
  9 10  4  0  0  0  0
 10 11  1  0  0  0  0
 11 12  4  0  0  0  0
 11 15  4  0  0  0  0
 12 13  1  0  0  0  0
 12 68  4  0  0  0  0
 13 14  1  0  0  0  0
 15 16  1  0  0  0  0
 15 67  4  0  0  0  0
 16 17  1  0  0  0  0
 17 18  1  0  0  0  0
 17 19  1  0  0  0  0
 17 20  1  0  0  0  0
 20 21  1  0  0  0  0
 21 22  1  0  0  0  0
 22 23  1  0  0  0  0
 22 66  2  0  0  0  0
 23 24  1  0  0  0  0
 23 65  1  0  0  0  0
 24 25  1  0  0  0  0
 25 26  1  0  0  0  0
 25 63  1  0  0  0  0
 26 27  1  0  0  0  0
 26 62  2  0  0  0  0
 27 28  1  0  0  0  0
 27 55  1  0  0  0  0
 28 29  1  0  0  0  0
 29 30  1  0  0  0  0
 29 54  2  0  0  0  0
 30 31  1  0  0  0  0
 30 34  1  0  0  0  0
 31 32  1  0  0  0  0
 31 33  1  0  0  0  0
 34 35  1  0  0  0  0
 34 53  1  0  0  0  0
 35 36  1  0  0  0  0
 35 52  2  0  0  0  0
 36 37  1  0  0  0  0
 36 51  1  0  0  0  0
 36 73  1  0  0  0  0
 37 38  1  0  0  0  0
 38 39  1  0  0  0  0
 39 40  1  0  0  0  0
 39 50  1  0  0  0  0
 40 41  1  0  0  0  0
 40 49  2  0  0  0  0
 41 42  1  0  0  0  0
 42 43  1  0  0  0  0
 43 44  1  0  0  0  0
 43 47  1  0  0  0  0
 43 48  1  0  0  0  0
 44 45  1  0  0  0  0
 44 46  1  0  0  0  0
 50 51  1  0  0  0  0
 55 56  1  0  0  0  0
 56 57  1  0  0  0  0
 56 61  1  0  0  0  0
 57 58  1  0  0  0  0
 58 59  1  0  0  0  0
 58 71  1  0  0  0  0
 59 60  1  0  0  0  0
 60 61  1  0  0  0  0
 63 64  1  0  0  0  0
 64 65  1  0  0  0  0
 67 68  4  0  0  0  0
 67 72  4  0  0  0  0
 68 69  4  0  0  0  0
 69 70  4  0  0  0  0
 70 71  4  0  0  0  0
 71 72  4  0  0  0  0
M  END
$$$$
