mol_ETKDG1_67
  PyMOL3.1          3D                             0

 73 79  0  0  0  0  0  0  0  0999 V2000
    4.9763    1.0251   -3.8884 C   0  0  0  0  0  0  0  0  0  0  0  0
    4.2141    0.4588   -2.7427 C   0  0  0  0  0  0  0  0  0  0  0  0
    4.4284   -0.9117   -2.5112 O   0  0  0  0  0  0  0  0  0  0  0  0
    4.1995   -1.8356   -3.5635 C   0  0  0  0  0  0  0  0  0  0  0  0
    4.4360    1.1979   -1.4520 C   0  0  0  0  0  0  0  0  0  0  0  0
    5.6440    1.1377   -0.9074 N   0  0  0  0  0  0  0  0  0  0  0  0
    5.9333    1.7962    0.2394 C   0  0  0  0  0  0  0  0  0  0  0  0
    4.9830    2.5783    0.8996 C   0  0  0  0  0  0  0  0  0  0  0  0
    3.7080    2.6634    0.3408 C   0  0  0  0  0  0  0  0  0  0  0  0
    3.4409    1.9578   -0.8374 C   0  0  0  0  0  0  0  0  0  0  0  0
    2.1137    2.0137   -1.3944 C   0  0  0  0  0  0  0  0  0  0  0  0
    1.7823    2.7780   -2.4604 N   0  0  0  0  0  0  0  0  0  0  0  0
    2.6483    3.7947   -3.1383 C   0  0  0  0  0  0  0  0  0  0  0  0
    2.8533    3.6466   -4.5562 C   0  0  0  0  0  0  0  0  0  0  0  0
    0.9770    1.3011   -0.9052 C   0  0  0  0  0  0  0  0  0  0  0  0
    0.7420    0.5149    0.3508 C   0  0  0  0  0  0  0  0  0  0  0  0
    1.1189   -1.0064    0.4221 C   0  0  0  0  0  0  0  0  0  0  0  0
    2.6181   -1.2254    0.3940 C   0  0  0  0  0  0  0  0  0  0  0  0
    0.6871   -1.4909    1.7906 C   0  0  0  0  0  0  0  0  0  0  0  0
    0.4505   -1.8379   -0.6681 C   0  0  0  0  0  0  0  0  0  0  0  0
   -0.9483   -2.3202   -0.3256 O   0  0  0  0  0  0  0  0  0  0  0  0
   -1.4255   -3.6526   -0.5071 C   0  0  0  0  0  0  0  0  0  0  0  0
   -2.8646   -3.9876   -0.1289 C   0  0  0  0  0  0  0  0  0  0  0  0
   -3.3780   -3.0094    0.7811 N   0  0  0  0  0  0  0  0  0  0  0  0
   -4.6488   -3.1876    1.3239 N   0  0  0  0  0  0  0  0  0  0  0  0
   -5.5741   -2.1811    1.2956 C   0  0  0  0  0  0  0  0  0  0  0  0
   -5.2150   -0.8874    0.6303 C   0  0  0  0  0  0  0  0  0  0  0  0
   -5.7643    0.2618    1.3315 N   0  0  0  0  0  0  0  0  0  0  0  0
   -5.0377    1.0852    2.1116 C   0  0  0  0  0  0  0  0  0  0  0  0
   -5.7417    2.3035    2.6236 C   0  0  0  0  0  0  0  0  0  0  0  0
   -6.2545    2.2001    4.0945 C   0  0  0  0  0  0  0  0  0  0  0  0
   -7.2224    3.2872    4.4463 C   0  0  0  0  0  0  0  0  0  0  0  0
   -6.7240    0.8375    4.4785 C   0  0  0  0  0  0  0  0  0  0  0  0
   -4.8306    3.4443    2.4355 N   0  0  0  0  0  0  0  0  0  0  0  0
   -4.7431    4.0219    1.1890 C   0  0  0  0  0  0  0  0  0  0  0  0
   -3.8029    5.1473    0.8172 C   0  0  0  0  0  0  0  0  0  0  0  0
   -4.0961    5.7405   -0.5741 C   0  0  0  0  0  0  0  0  0  0  0  0
   -3.0648    6.7426   -0.9794 C   0  0  0  0  0  0  0  0  0  0  0  0
   -1.6970    6.2139   -0.8054 N   0  0  0  0  0  0  0  0  0  0  0  0
   -0.7111    6.2725   -1.7595 C   0  0  0  0  0  0  0  0  0  0  0  0
   -0.9225    6.7110   -3.0517 C   0  0  0  0  0  0  0  0  0  0  0  0
   -0.9202    7.1093   -4.1485 C   0  0  0  0  0  0  0  0  0  0  0  0
   -1.0989    7.6670   -5.4272 C   0  0  0  0  0  0  0  0  0  0  0  0
   -0.4457    8.9445   -5.4812 N   0  0  0  0  0  0  0  0  0  0  0  0
   -1.0119   10.0408   -4.7886 C   0  0  0  0  0  0  0  0  0  0  0  0
    0.8887    9.0818   -5.9301 C   0  0  0  0  0  0  0  0  0  0  0  0
   -0.5606    6.7287   -6.4953 C   0  0  0  0  0  0  0  0  0  0  0  0
   -2.5913    7.8390   -5.7137 C   0  0  0  0  0  0  0  0  0  0  0  0
    0.4338    5.8892   -1.4671 O   0  0  0  0  0  0  0  0  0  0  0  0
   -1.4002    5.5977    0.4474 C   0  0  0  0  0  0  0  0  0  0  0  0
   -2.4001    4.5595    0.7897 C   0  0  0  0  0  0  0  0  0  0  0  0
   -5.4808    3.5613    0.2996 O   0  0  0  0  0  0  0  0  0  0  0  0
   -3.9558    3.8524    3.5528 C   0  0  0  0  0  0  0  0  0  0  0  0
   -3.8434    0.8971    2.2716 O   0  0  0  0  0  0  0  0  0  0  0  0
   -5.7430   -0.8934   -0.8540 C   0  0  0  0  0  0  0  0  0  0  0  0
   -5.3918    0.3757   -1.6631 C   0  0  0  0  0  0  0  0  0  0  0  0
   -3.9630    0.2754   -2.0317 C   0  0  0  0  0  0  0  0  0  0  0  0
   -3.5412    1.3676   -2.8688 N   0  0  0  0  0  0  0  0  0  0  0  0
   -4.3755    1.5778   -4.0641 C   0  0  0  0  0  0  0  0  0  0  0  0
   -5.8726    1.5647   -3.6938 C   0  0  0  0  0  0  0  0  0  0  0  0
   -6.2169    0.4030   -2.8584 O   0  0  0  0  0  0  0  0  0  0  0  0
   -6.7187   -2.3316    1.7627 O   0  0  0  0  0  0  0  0  0  0  0  0
   -4.9045   -4.4756    1.9685 C   0  0  0  0  0  0  0  0  0  0  0  0
   -4.4219   -5.6276    1.0549 C   0  0  0  0  0  0  0  0  0  0  0  0
   -3.0056   -5.3965    0.5220 C   0  0  0  0  0  0  0  0  0  0  0  0
   -0.7199   -4.5738   -0.9722 O   0  0  0  0  0  0  0  0  0  0  0  0
   -0.0320    1.6458   -1.8121 C   0  0  0  0  0  0  0  0  0  0  0  0
    0.4903    2.5533   -2.7355 C   0  0  0  0  0  0  0  0  0  0  0  0
   -0.3671    3.0892   -3.7477 C   0  0  0  0  0  0  0  0  0  0  0  0
   -1.6964    2.6797   -3.7510 C   0  0  0  0  0  0  0  0  0  0  0  0
   -2.2004    1.7676   -2.8224 C   0  0  0  0  0  0  0  0  0  0  0  0
   -1.3620    1.2504   -1.8169 C   0  0  0  0  0  0  0  0  0  0  0  0
   -3.8862    6.1910    1.7382 F   0  0  0  0  0  0  0  0  0  0  0  0
  1  2  1  0  0  0  0
  2  3  1  0  0  0  0
  2  5  1  0  0  0  0
  3  4  1  0  0  0  0
  5  6  4  0  0  0  0
  5 10  4  0  0  0  0
  6  7  4  0  0  0  0
  7  8  4  0  0  0  0
  8  9  4  0  0  0  0
  9 10  4  0  0  0  0
 10 11  1  0  0  0  0
 11 12  4  0  0  0  0
 11 15  4  0  0  0  0
 12 13  1  0  0  0  0
 12 68  4  0  0  0  0
 13 14  1  0  0  0  0
 15 16  1  0  0  0  0
 15 67  4  0  0  0  0
 16 17  1  0  0  0  0
 17 18  1  0  0  0  0
 17 19  1  0  0  0  0
 17 20  1  0  0  0  0
 20 21  1  0  0  0  0
 21 22  1  0  0  0  0
 22 23  1  0  0  0  0
 22 66  2  0  0  0  0
 23 24  1  0  0  0  0
 23 65  1  0  0  0  0
 24 25  1  0  0  0  0
 25 26  1  0  0  0  0
 25 63  1  0  0  0  0
 26 27  1  0  0  0  0
 26 62  2  0  0  0  0
 27 28  1  0  0  0  0
 27 55  1  0  0  0  0
 28 29  1  0  0  0  0
 29 30  1  0  0  0  0
 29 54  2  0  0  0  0
 30 31  1  0  0  0  0
 30 34  1  0  0  0  0
 31 32  1  0  0  0  0
 31 33  1  0  0  0  0
 34 35  1  0  0  0  0
 34 53  1  0  0  0  0
 35 36  1  0  0  0  0
 35 52  2  0  0  0  0
 36 37  1  0  0  0  0
 36 51  1  0  0  0  0
 36 73  1  0  0  0  0
 37 38  1  0  0  0  0
 38 39  1  0  0  0  0
 39 40  1  0  0  0  0
 39 50  1  0  0  0  0
 40 41  1  0  0  0  0
 40 49  2  0  0  0  0
 41 42  1  0  0  0  0
 42 43  1  0  0  0  0
 43 44  1  0  0  0  0
 43 47  1  0  0  0  0
 43 48  1  0  0  0  0
 44 45  1  0  0  0  0
 44 46  1  0  0  0  0
 50 51  1  0  0  0  0
 55 56  1  0  0  0  0
 56 57  1  0  0  0  0
 56 61  1  0  0  0  0
 57 58  1  0  0  0  0
 58 59  1  0  0  0  0
 58 71  1  0  0  0  0
 59 60  1  0  0  0  0
 60 61  1  0  0  0  0
 63 64  1  0  0  0  0
 64 65  1  0  0  0  0
 67 68  4  0  0  0  0
 67 72  4  0  0  0  0
 68 69  4  0  0  0  0
 69 70  4  0  0  0  0
 70 71  4  0  0  0  0
 71 72  4  0  0  0  0
M  END
$$$$
