mol_ETKDG3_169
  PyMOL3.1          3D                             0

 73 79  0  0  0  0  0  0  0  0999 V2000
    3.5095   -3.7535    2.0076 C   0  0  0  0  0  0  0  0  0  0  0  0
    3.6094   -2.2801    1.9266 C   0  0  0  0  0  0  0  0  0  0  0  0
    4.0607   -1.7538    0.6979 O   0  0  0  0  0  0  0  0  0  0  0  0
    3.1926   -1.8486   -0.4129 C   0  0  0  0  0  0  0  0  0  0  0  0
    4.4560   -1.6970    2.9912 C   0  0  0  0  0  0  0  0  0  0  0  0
    5.7735   -1.7873    2.8668 N   0  0  0  0  0  0  0  0  0  0  0  0
    6.6027   -1.3219    3.8281 C   0  0  0  0  0  0  0  0  0  0  0  0
    6.1112   -0.7304    4.9986 C   0  0  0  0  0  0  0  0  0  0  0  0
    4.7208   -0.6339    5.1536 C   0  0  0  0  0  0  0  0  0  0  0  0
    3.8951   -1.1050    4.1196 C   0  0  0  0  0  0  0  0  0  0  0  0
    2.4673   -0.9638    4.2586 C   0  0  0  0  0  0  0  0  0  0  0  0
    1.7013   -1.8287    4.9683 N   0  0  0  0  0  0  0  0  0  0  0  0
    2.1418   -3.0665    5.7052 C   0  0  0  0  0  0  0  0  0  0  0  0
    2.2055   -2.8838    7.1601 C   0  0  0  0  0  0  0  0  0  0  0  0
    1.6613    0.0184    3.6157 C   0  0  0  0  0  0  0  0  0  0  0  0
    2.0083    1.1135    2.6271 C   0  0  0  0  0  0  0  0  0  0  0  0
    2.4632    2.5089    3.2401 C   0  0  0  0  0  0  0  0  0  0  0  0
    2.7240    3.4470    2.0708 C   0  0  0  0  0  0  0  0  0  0  0  0
    3.7678    2.4217    3.9494 C   0  0  0  0  0  0  0  0  0  0  0  0
    1.4240    3.1164    4.1736 C   0  0  0  0  0  0  0  0  0  0  0  0
    0.3718    3.9640    3.5391 O   0  0  0  0  0  0  0  0  0  0  0  0
   -0.0859    5.2144    4.0420 C   0  0  0  0  0  0  0  0  0  0  0  0
   -1.2058    5.9258    3.2979 C   0  0  0  0  0  0  0  0  0  0  0  0
   -1.3203    5.3991    1.9681 N   0  0  0  0  0  0  0  0  0  0  0  0
   -2.2708    5.9627    1.1255 N   0  0  0  0  0  0  0  0  0  0  0  0
   -3.2137    5.1898    0.4985 C   0  0  0  0  0  0  0  0  0  0  0  0
   -3.2418    3.7153    0.7856 C   0  0  0  0  0  0  0  0  0  0  0  0
   -3.5575    2.9239   -0.3911 N   0  0  0  0  0  0  0  0  0  0  0  0
   -2.6397    2.1805   -1.0542 C   0  0  0  0  0  0  0  0  0  0  0  0
   -3.1775    1.2820   -2.1217 C   0  0  0  0  0  0  0  0  0  0  0  0
   -3.0090    1.7980   -3.5804 C   0  0  0  0  0  0  0  0  0  0  0  0
   -3.8477    1.0328   -4.5579 C   0  0  0  0  0  0  0  0  0  0  0  0
   -3.1540    3.2809   -3.7140 C   0  0  0  0  0  0  0  0  0  0  0  0
   -2.5595   -0.0345   -1.9198 N   0  0  0  0  0  0  0  0  0  0  0  0
   -3.1240   -0.8934   -1.0013 C   0  0  0  0  0  0  0  0  0  0  0  0
   -2.5711   -2.2517   -0.6306 C   0  0  0  0  0  0  0  0  0  0  0  0
   -1.4506   -2.0206    0.3620 C   0  0  0  0  0  0  0  0  0  0  0  0
   -0.8309   -3.3232    0.8005 C   0  0  0  0  0  0  0  0  0  0  0  0
   -1.8933   -4.1599    1.3707 N   0  0  0  0  0  0  0  0  0  0  0  0
   -1.7868   -4.6203    2.6639 C   0  0  0  0  0  0  0  0  0  0  0  0
   -2.9022   -4.8781    3.4505 C   0  0  0  0  0  0  0  0  0  0  0  0
   -3.7370   -5.1512    4.2092 C   0  0  0  0  0  0  0  0  0  0  0  0
   -4.8870   -5.4344    4.9860 C   0  0  0  0  0  0  0  0  0  0  0  0
   -4.8618   -6.7990    5.4060 N   0  0  0  0  0  0  0  0  0  0  0  0
   -5.0033   -7.8323    4.4450 C   0  0  0  0  0  0  0  0  0  0  0  0
   -4.3464   -7.1739    6.6726 C   0  0  0  0  0  0  0  0  0  0  0  0
   -6.1428   -5.1553    4.1592 C   0  0  0  0  0  0  0  0  0  0  0  0
   -4.9555   -4.5065    6.1782 C   0  0  0  0  0  0  0  0  0  0  0  0
   -0.6844   -4.7533    3.1913 O   0  0  0  0  0  0  0  0  0  0  0  0
   -3.0346   -4.4160    0.5204 C   0  0  0  0  0  0  0  0  0  0  0  0
   -3.6407   -3.1508    0.0252 C   0  0  0  0  0  0  0  0  0  0  0  0
   -4.1547   -0.5055   -0.4134 O   0  0  0  0  0  0  0  0  0  0  0  0
   -1.2906   -0.3407   -2.6079 C   0  0  0  0  0  0  0  0  0  0  0  0
   -1.4709    2.1712   -0.6994 O   0  0  0  0  0  0  0  0  0  0  0  0
   -4.3146    3.4072    1.9075 C   0  0  0  0  0  0  0  0  0  0  0  0
   -4.3663    1.9146    2.3540 C   0  0  0  0  0  0  0  0  0  0  0  0
   -3.2392    1.6883    3.2906 C   0  0  0  0  0  0  0  0  0  0  0  0
   -3.2433    0.3514    3.8297 N   0  0  0  0  0  0  0  0  0  0  0  0
   -4.5137   -0.0820    4.4249 C   0  0  0  0  0  0  0  0  0  0  0  0
   -5.6977    0.2793    3.5102 C   0  0  0  0  0  0  0  0  0  0  0  0
   -5.6208    1.6782    3.0511 O   0  0  0  0  0  0  0  0  0  0  0  0
   -4.0688    5.6841   -0.2611 O   0  0  0  0  0  0  0  0  0  0  0  0
   -2.1381    7.4064    0.8997 C   0  0  0  0  0  0  0  0  0  0  0  0
   -2.0145    8.1215    2.2662 C   0  0  0  0  0  0  0  0  0  0  0  0
   -0.9739    7.4678    3.1866 C   0  0  0  0  0  0  0  0  0  0  0  0
    0.3716    5.7685    5.0682 O   0  0  0  0  0  0  0  0  0  0  0  0
    0.3604   -0.3027    4.0367 C   0  0  0  0  0  0  0  0  0  0  0  0
    0.4270   -1.4313    4.8570 C   0  0  0  0  0  0  0  0  0  0  0  0
   -0.7837   -1.9821    5.3850 C   0  0  0  0  0  0  0  0  0  0  0  0
   -1.9843   -1.3568    5.0198 C   0  0  0  0  0  0  0  0  0  0  0  0
   -2.0257   -0.2380    4.1862 C   0  0  0  0  0  0  0  0  0  0  0  0
   -0.8335    0.3044    3.6803 C   0  0  0  0  0  0  0  0  0  0  0  0
   -2.1405   -2.9406   -1.7497 F   0  0  0  0  0  0  0  0  0  0  0  0
  1  2  1  0  0  0  0
  2  3  1  0  0  0  0
  2  5  1  0  0  0  0
  3  4  1  0  0  0  0
  5  6  4  0  0  0  0
  5 10  4  0  0  0  0
  6  7  4  0  0  0  0
  7  8  4  0  0  0  0
  8  9  4  0  0  0  0
  9 10  4  0  0  0  0
 10 11  1  0  0  0  0
 11 12  4  0  0  0  0
 11 15  4  0  0  0  0
 12 13  1  0  0  0  0
 12 68  4  0  0  0  0
 13 14  1  0  0  0  0
 15 16  1  0  0  0  0
 15 67  4  0  0  0  0
 16 17  1  0  0  0  0
 17 18  1  0  0  0  0
 17 19  1  0  0  0  0
 17 20  1  0  0  0  0
 20 21  1  0  0  0  0
 21 22  1  0  0  0  0
 22 23  1  0  0  0  0
 22 66  2  0  0  0  0
 23 24  1  0  0  0  0
 23 65  1  0  0  0  0
 24 25  1  0  0  0  0
 25 26  1  0  0  0  0
 25 63  1  0  0  0  0
 26 27  1  0  0  0  0
 26 62  2  0  0  0  0
 27 28  1  0  0  0  0
 27 55  1  0  0  0  0
 28 29  1  0  0  0  0
 29 30  1  0  0  0  0
 29 54  2  0  0  0  0
 30 31  1  0  0  0  0
 30 34  1  0  0  0  0
 31 32  1  0  0  0  0
 31 33  1  0  0  0  0
 34 35  1  0  0  0  0
 34 53  1  0  0  0  0
 35 36  1  0  0  0  0
 35 52  2  0  0  0  0
 36 37  1  0  0  0  0
 36 51  1  0  0  0  0
 36 73  1  0  0  0  0
 37 38  1  0  0  0  0
 38 39  1  0  0  0  0
 39 40  1  0  0  0  0
 39 50  1  0  0  0  0
 40 41  1  0  0  0  0
 40 49  2  0  0  0  0
 41 42  1  0  0  0  0
 42 43  1  0  0  0  0
 43 44  1  0  0  0  0
 43 47  1  0  0  0  0
 43 48  1  0  0  0  0
 44 45  1  0  0  0  0
 44 46  1  0  0  0  0
 50 51  1  0  0  0  0
 55 56  1  0  0  0  0
 56 57  1  0  0  0  0
 56 61  1  0  0  0  0
 57 58  1  0  0  0  0
 58 59  1  0  0  0  0
 58 71  1  0  0  0  0
 59 60  1  0  0  0  0
 60 61  1  0  0  0  0
 63 64  1  0  0  0  0
 64 65  1  0  0  0  0
 67 68  4  0  0  0  0
 67 72  4  0  0  0  0
 68 69  4  0  0  0  0
 69 70  4  0  0  0  0
 70 71  4  0  0  0  0
 71 72  4  0  0  0  0
M  END
$$$$
