mol_bioactive_26
  PyMOL3.1          3D                             0

 73 79  0  0  0  0  0  0  0  0999 V2000
   -3.7550    1.6317   -3.3580 C   0  0  0  0  0  0  0  0  0  0  0  0
   -4.2589    2.4692   -2.2779 C   0  0  0  0  0  0  0  0  0  0  0  0
   -3.3158    3.3778   -1.7153 O   0  0  0  0  0  0  0  0  0  0  0  0
   -2.4389    4.1311   -2.4783 C   0  0  0  0  0  0  0  0  0  0  0  0
   -4.8611    1.7983   -1.1250 C   0  0  0  0  0  0  0  0  0  0  0  0
   -5.9987    2.4486   -0.9726 N   0  0  0  0  0  0  0  0  0  0  0  0
   -6.9056    2.0812   -0.0940 C   0  0  0  0  0  0  0  0  0  0  0  0
   -6.7283    0.9723    0.7026 C   0  0  0  0  0  0  0  0  0  0  0  0
   -5.5429    0.2392    0.5809 C   0  0  0  0  0  0  0  0  0  0  0  0
   -4.6049    0.6489   -0.3470 C   0  0  0  0  0  0  0  0  0  0  0  0
   -3.3580   -0.0946   -0.3968 C   0  0  0  0  0  0  0  0  0  0  0  0
   -3.1128   -1.1918   -1.1467 N   0  0  0  0  0  0  0  0  0  0  0  0
   -4.0596   -1.8465   -2.0980 C   0  0  0  0  0  0  0  0  0  0  0  0
   -4.6144   -3.1027   -1.6215 C   0  0  0  0  0  0  0  0  0  0  0  0
   -2.2137    0.2342    0.3138 C   0  0  0  0  0  0  0  0  0  0  0  0
   -2.1353    1.3235    1.1702 C   0  0  0  0  0  0  0  0  0  0  0  0
   -1.5520    1.8129    2.3599 C   0  0  0  0  0  0  0  0  0  0  0  0
   -2.5993    2.6463    3.1294 C   0  0  0  0  0  0  0  0  0  0  0  0
   -0.4851    2.7420    1.9360 C   0  0  0  0  0  0  0  0  0  0  0  0
   -1.0426    0.6695    3.2283 C   0  0  0  0  0  0  0  0  0  0  0  0
    0.4257    0.7535    3.5731 O   0  0  0  0  0  0  0  0  0  0  0  0
    0.9518    0.9404    4.8903 C   0  0  0  0  0  0  0  0  0  0  0  0
    2.4623    1.1335    5.0489 C   0  0  0  0  0  0  0  0  0  0  0  0
    2.9412    1.9951    4.0142 N   0  0  0  0  0  0  0  0  0  0  0  0
    4.2791    2.3704    4.0201 N   0  0  0  0  0  0  0  0  0  0  0  0
    5.0602    2.1732    2.9226 C   0  0  0  0  0  0  0  0  0  0  0  0
    4.4771    1.4430    1.7534 C   0  0  0  0  0  0  0  0  0  0  0  0
    4.9033    2.0212    0.4761 N   0  0  0  0  0  0  0  0  0  0  0  0
    4.2079    2.9328   -0.2086 C   0  0  0  0  0  0  0  0  0  0  0  0
    4.7544    3.3367   -1.5415 C   0  0  0  0  0  0  0  0  0  0  0  0
    5.4025    4.7578   -1.5660 C   0  0  0  0  0  0  0  0  0  0  0  0
    6.1287    5.0457   -2.8430 C   0  0  0  0  0  0  0  0  0  0  0  0
    6.2283    5.0363   -0.3543 C   0  0  0  0  0  0  0  0  0  0  0  0
    3.6507    3.1966   -2.4840 N   0  0  0  0  0  0  0  0  0  0  0  0
    3.4152    1.9627   -3.0292 C   0  0  0  0  0  0  0  0  0  0  0  0
    2.2871    1.6420   -3.9663 C   0  0  0  0  0  0  0  0  0  0  0  0
    2.5705    0.4262   -4.8445 C   0  0  0  0  0  0  0  0  0  0  0  0
    1.3970    0.1141   -5.6813 C   0  0  0  0  0  0  0  0  0  0  0  0
    0.1757    0.0165   -4.8723 N   0  0  0  0  0  0  0  0  0  0  0  0
   -0.6717   -1.0340   -4.9701 C   0  0  0  0  0  0  0  0  0  0  0  0
   -0.2854   -2.1705   -5.6270 C   0  0  0  0  0  0  0  0  0  0  0  0
   -0.0806   -3.1648   -6.1679 C   0  0  0  0  0  0  0  0  0  0  0  0
    0.3786   -4.3147   -6.8349 C   0  0  0  0  0  0  0  0  0  0  0  0
   -0.3122   -5.4833   -6.4457 N   0  0  0  0  0  0  0  0  0  0  0  0
   -0.7221   -5.6290   -5.1186 C   0  0  0  0  0  0  0  0  0  0  0  0
   -0.3641   -6.6264   -7.2488 C   0  0  0  0  0  0  0  0  0  0  0  0
    0.2265   -4.0628   -8.3222 C   0  0  0  0  0  0  0  0  0  0  0  0
    1.8594   -4.5104   -6.5567 C   0  0  0  0  0  0  0  0  0  0  0  0
   -1.7907   -0.9862   -4.4515 O   0  0  0  0  0  0  0  0  0  0  0  0
   -0.1008    1.0782   -3.9530 C   0  0  0  0  0  0  0  0  0  0  0  0
    1.0637    1.3769   -3.1089 C   0  0  0  0  0  0  0  0  0  0  0  0
    4.1785    1.0385   -2.7009 O   0  0  0  0  0  0  0  0  0  0  0  0
    2.7643    4.3458   -2.7157 C   0  0  0  0  0  0  0  0  0  0  0  0
    3.1246    3.3008    0.2003 O   0  0  0  0  0  0  0  0  0  0  0  0
    4.9498   -0.0480    1.8544 C   0  0  0  0  0  0  0  0  0  0  0  0
    4.1779   -1.2910    1.3688 C   0  0  0  0  0  0  0  0  0  0  0  0
    2.8338   -1.0066    0.8769 C   0  0  0  0  0  0  0  0  0  0  0  0
    2.1905   -2.0464    0.1373 N   0  0  0  0  0  0  0  0  0  0  0  0
    2.9329   -3.2136   -0.2256 C   0  0  0  0  0  0  0  0  0  0  0  0
    4.4081   -3.1400   -0.1248 C   0  0  0  0  0  0  0  0  0  0  0  0
    5.0018   -1.9359    0.3774 O   0  0  0  0  0  0  0  0  0  0  0  0
    6.2536    2.5050    2.8990 O   0  0  0  0  0  0  0  0  0  0  0  0
    4.7486    3.0215    5.2322 C   0  0  0  0  0  0  0  0  0  0  0  0
    4.3295    2.1736    6.4465 C   0  0  0  0  0  0  0  0  0  0  0  0
    2.8582    1.7716    6.4137 C   0  0  0  0  0  0  0  0  0  0  0  0
    0.2468    0.9102    5.9160 O   0  0  0  0  0  0  0  0  0  0  0  0
   -1.2515   -0.7382   -0.0492 C   0  0  0  0  0  0  0  0  0  0  0  0
   -1.8482   -1.5957   -0.9362 C   0  0  0  0  0  0  0  0  0  0  0  0
   -1.0877   -2.6796   -1.4890 C   0  0  0  0  0  0  0  0  0  0  0  0
    0.2437   -2.7940   -1.1000 C   0  0  0  0  0  0  0  0  0  0  0  0
    0.8430   -1.9069   -0.2102 C   0  0  0  0  0  0  0  0  0  0  0  0
    0.0873   -0.8580    0.3301 C   0  0  0  0  0  0  0  0  0  0  0  0
    2.0410    2.6823   -4.8319 F   0  0  0  0  0  0  0  0  0  0  0  0
  1  2  1  0  0  0  0
  2  3  1  0  0  0  0
  2  5  1  0  0  0  0
  3  4  1  0  0  0  0
  5  6  4  0  0  0  0
  5 10  4  0  0  0  0
  6  7  4  0  0  0  0
  7  8  4  0  0  0  0
  8  9  4  0  0  0  0
  9 10  4  0  0  0  0
 10 11  1  0  0  0  0
 11 12  4  0  0  0  0
 11 15  4  0  0  0  0
 12 13  1  0  0  0  0
 12 68  4  0  0  0  0
 13 14  1  0  0  0  0
 15 16  1  0  0  0  0
 15 67  4  0  0  0  0
 16 17  1  0  0  0  0
 17 18  1  0  0  0  0
 17 19  1  0  0  0  0
 17 20  1  0  0  0  0
 20 21  1  0  0  0  0
 21 22  1  0  0  0  0
 22 23  1  0  0  0  0
 22 66  2  0  0  0  0
 23 24  1  0  0  0  0
 23 65  1  0  0  0  0
 24 25  1  0  0  0  0
 25 26  1  0  0  0  0
 25 63  1  0  0  0  0
 26 27  1  0  0  0  0
 26 62  2  0  0  0  0
 27 28  1  0  0  0  0
 27 55  1  0  0  0  0
 28 29  1  0  0  0  0
 29 30  1  0  0  0  0
 29 54  2  0  0  0  0
 30 31  1  0  0  0  0
 30 34  1  0  0  0  0
 31 32  1  0  0  0  0
 31 33  1  0  0  0  0
 34 35  1  0  0  0  0
 34 53  1  0  0  0  0
 35 36  1  0  0  0  0
 35 52  2  0  0  0  0
 36 37  1  0  0  0  0
 36 51  1  0  0  0  0
 36 73  1  0  0  0  0
 37 38  1  0  0  0  0
 38 39  1  0  0  0  0
 39 40  1  0  0  0  0
 39 50  1  0  0  0  0
 40 41  1  0  0  0  0
 40 49  2  0  0  0  0
 41 42  1  0  0  0  0
 42 43  1  0  0  0  0
 43 44  1  0  0  0  0
 43 47  1  0  0  0  0
 43 48  1  0  0  0  0
 44 45  1  0  0  0  0
 44 46  1  0  0  0  0
 50 51  1  0  0  0  0
 55 56  1  0  0  0  0
 56 57  1  0  0  0  0
 56 61  1  0  0  0  0
 57 58  1  0  0  0  0
 58 59  1  0  0  0  0
 58 71  1  0  0  0  0
 59 60  1  0  0  0  0
 60 61  1  0  0  0  0
 63 64  1  0  0  0  0
 64 65  1  0  0  0  0
 67 68  4  0  0  0  0
 67 72  4  0  0  0  0
 68 69  4  0  0  0  0
 69 70  4  0  0  0  0
 70 71  4  0  0  0  0
 71 72  4  0  0  0  0
M  END
$$$$
