mol_ETKDG4_242
  PyMOL3.1          3D                             0

 73 79  0  0  0  0  0  0  0  0999 V2000
    4.8264   -4.4580    1.1504 C   0  0  0  0  0  0  0  0  0  0  0  0
    4.9179   -3.2374    0.3116 C   0  0  0  0  0  0  0  0  0  0  0  0
    6.0470   -2.4174    0.5314 O   0  0  0  0  0  0  0  0  0  0  0  0
    6.0964   -1.6875    1.7325 C   0  0  0  0  0  0  0  0  0  0  0  0
    4.8742   -3.5352   -1.1333 C   0  0  0  0  0  0  0  0  0  0  0  0
    5.9706   -4.0211   -1.7075 N   0  0  0  0  0  0  0  0  0  0  0  0
    5.9922   -4.3613   -3.0159 C   0  0  0  0  0  0  0  0  0  0  0  0
    4.8626   -4.2294   -3.8242 C   0  0  0  0  0  0  0  0  0  0  0  0
    3.6970   -3.7302   -3.2369 C   0  0  0  0  0  0  0  0  0  0  0  0
    3.7197   -3.3552   -1.8796 C   0  0  0  0  0  0  0  0  0  0  0  0
    2.5136   -2.8054   -1.3156 C   0  0  0  0  0  0  0  0  0  0  0  0
    1.4670   -3.5698   -0.9149 N   0  0  0  0  0  0  0  0  0  0  0  0
    1.3485   -5.0722   -0.9804 C   0  0  0  0  0  0  0  0  0  0  0  0
    1.3715   -5.7510    0.3260 C   0  0  0  0  0  0  0  0  0  0  0  0
    2.2434   -1.4258   -1.0837 C   0  0  0  0  0  0  0  0  0  0  0  0
    3.1042   -0.1994   -1.2433 C   0  0  0  0  0  0  0  0  0  0  0  0
    3.1297    0.4539   -2.6848 C   0  0  0  0  0  0  0  0  0  0  0  0
    3.9227    1.7381   -2.5869 C   0  0  0  0  0  0  0  0  0  0  0  0
    3.8909   -0.3712   -3.6689 C   0  0  0  0  0  0  0  0  0  0  0  0
    1.7376    0.7201   -3.2122 C   0  0  0  0  0  0  0  0  0  0  0  0
    1.1931    2.0940   -2.9492 O   0  0  0  0  0  0  0  0  0  0  0  0
    0.5309    2.8977   -3.9090 C   0  0  0  0  0  0  0  0  0  0  0  0
    0.0212    4.2644   -3.4989 C   0  0  0  0  0  0  0  0  0  0  0  0
    0.4612    4.6130   -2.1728 N   0  0  0  0  0  0  0  0  0  0  0  0
    0.0632    5.8545   -1.6814 N   0  0  0  0  0  0  0  0  0  0  0  0
   -0.5868    5.9752   -0.4737 C   0  0  0  0  0  0  0  0  0  0  0  0
   -0.8013    4.7537    0.3650 C   0  0  0  0  0  0  0  0  0  0  0  0
   -0.8036    5.0508    1.7832 N   0  0  0  0  0  0  0  0  0  0  0  0
    0.2353    4.8490    2.5953 C   0  0  0  0  0  0  0  0  0  0  0  0
   -0.0062    4.9726    4.0641 C   0  0  0  0  0  0  0  0  0  0  0  0
    0.4227    6.3276    4.7111 C   0  0  0  0  0  0  0  0  0  0  0  0
   -0.2050    6.5446    6.0547 C   0  0  0  0  0  0  0  0  0  0  0  0
    0.2790    7.5053    3.7994 C   0  0  0  0  0  0  0  0  0  0  0  0
    0.6469    3.8067    4.6604 N   0  0  0  0  0  0  0  0  0  0  0  0
   -0.0302    2.6109    4.6542 C   0  0  0  0  0  0  0  0  0  0  0  0
    0.5470    1.2847    5.0937 C   0  0  0  0  0  0  0  0  0  0  0  0
    1.3698    0.7653    3.9329 C   0  0  0  0  0  0  0  0  0  0  0  0
    1.9637   -0.5795    4.2379 C   0  0  0  0  0  0  0  0  0  0  0  0
    0.8764   -1.5026    4.6068 N   0  0  0  0  0  0  0  0  0  0  0  0
    0.6603   -2.6805    3.9186 C   0  0  0  0  0  0  0  0  0  0  0  0
   -0.5781   -3.3136    3.9761 C   0  0  0  0  0  0  0  0  0  0  0  0
   -1.5721   -3.9090    4.0075 C   0  0  0  0  0  0  0  0  0  0  0  0
   -2.8770   -4.4259    4.2072 C   0  0  0  0  0  0  0  0  0  0  0  0
   -2.9854   -4.9338    5.5377 N   0  0  0  0  0  0  0  0  0  0  0  0
   -2.5156   -6.2220    5.8355 C   0  0  0  0  0  0  0  0  0  0  0  0
   -3.4154   -4.1256    6.6065 C   0  0  0  0  0  0  0  0  0  0  0  0
   -3.9074   -3.3240    3.9675 C   0  0  0  0  0  0  0  0  0  0  0  0
   -3.1971   -5.5125    3.2068 C   0  0  0  0  0  0  0  0  0  0  0  0
    1.5366   -3.1636    3.2036 O   0  0  0  0  0  0  0  0  0  0  0  0
    0.0363   -1.0795    5.6914 C   0  0  0  0  0  0  0  0  0  0  0  0
   -0.5547    0.2643    5.4295 C   0  0  0  0  0  0  0  0  0  0  0  0
   -1.1939    2.6171    4.2122 O   0  0  0  0  0  0  0  0  0  0  0  0
    2.0473    3.9230    5.1025 C   0  0  0  0  0  0  0  0  0  0  0  0
    1.2853    4.4403    2.1293 O   0  0  0  0  0  0  0  0  0  0  0  0
   -2.1911    4.0997    0.0184 C   0  0  0  0  0  0  0  0  0  0  0  0
   -2.4654    2.7892    0.7943 C   0  0  0  0  0  0  0  0  0  0  0  0
   -1.7566    1.7024    0.0823 C   0  0  0  0  0  0  0  0  0  0  0  0
   -2.0090    0.4217    0.6979 N   0  0  0  0  0  0  0  0  0  0  0  0
   -3.4583    0.1236    0.8605 C   0  0  0  0  0  0  0  0  0  0  0  0
   -4.1846    1.2967    1.5120 C   0  0  0  0  0  0  0  0  0  0  0  0
   -3.8866    2.5515    0.8049 O   0  0  0  0  0  0  0  0  0  0  0  0
   -1.0406    7.0685   -0.0830 O   0  0  0  0  0  0  0  0  0  0  0  0
    0.4397    7.0061   -2.4978 C   0  0  0  0  0  0  0  0  0  0  0  0
    0.0314    6.7589   -3.9680 C   0  0  0  0  0  0  0  0  0  0  0  0
    0.4705    5.3850   -4.4729 C   0  0  0  0  0  0  0  0  0  0  0  0
    0.3265    2.5559   -5.1064 O   0  0  0  0  0  0  0  0  0  0  0  0
    0.9405   -1.4290   -0.5535 C   0  0  0  0  0  0  0  0  0  0  0  0
    0.5222   -2.7524   -0.4333 C   0  0  0  0  0  0  0  0  0  0  0  0
   -0.7634   -3.0335    0.1387 C   0  0  0  0  0  0  0  0  0  0  0  0
   -1.5484   -1.9481    0.5171 C   0  0  0  0  0  0  0  0  0  0  0  0
   -1.1431   -0.6319    0.3452 C   0  0  0  0  0  0  0  0  0  0  0  0
    0.1436   -0.3490   -0.1666 C   0  0  0  0  0  0  0  0  0  0  0  0
    1.2939    1.4121    6.2474 F   0  0  0  0  0  0  0  0  0  0  0  0
  1  2  1  0  0  0  0
  2  3  1  0  0  0  0
  2  5  1  0  0  0  0
  3  4  1  0  0  0  0
  5  6  4  0  0  0  0
  5 10  4  0  0  0  0
  6  7  4  0  0  0  0
  7  8  4  0  0  0  0
  8  9  4  0  0  0  0
  9 10  4  0  0  0  0
 10 11  1  0  0  0  0
 11 12  4  0  0  0  0
 11 15  4  0  0  0  0
 12 13  1  0  0  0  0
 12 68  4  0  0  0  0
 13 14  1  0  0  0  0
 15 16  1  0  0  0  0
 15 67  4  0  0  0  0
 16 17  1  0  0  0  0
 17 18  1  0  0  0  0
 17 19  1  0  0  0  0
 17 20  1  0  0  0  0
 20 21  1  0  0  0  0
 21 22  1  0  0  0  0
 22 23  1  0  0  0  0
 22 66  2  0  0  0  0
 23 24  1  0  0  0  0
 23 65  1  0  0  0  0
 24 25  1  0  0  0  0
 25 26  1  0  0  0  0
 25 63  1  0  0  0  0
 26 27  1  0  0  0  0
 26 62  2  0  0  0  0
 27 28  1  0  0  0  0
 27 55  1  0  0  0  0
 28 29  1  0  0  0  0
 29 30  1  0  0  0  0
 29 54  2  0  0  0  0
 30 31  1  0  0  0  0
 30 34  1  0  0  0  0
 31 32  1  0  0  0  0
 31 33  1  0  0  0  0
 34 35  1  0  0  0  0
 34 53  1  0  0  0  0
 35 36  1  0  0  0  0
 35 52  2  0  0  0  0
 36 37  1  0  0  0  0
 36 51  1  0  0  0  0
 36 73  1  0  0  0  0
 37 38  1  0  0  0  0
 38 39  1  0  0  0  0
 39 40  1  0  0  0  0
 39 50  1  0  0  0  0
 40 41  1  0  0  0  0
 40 49  2  0  0  0  0
 41 42  1  0  0  0  0
 42 43  1  0  0  0  0
 43 44  1  0  0  0  0
 43 47  1  0  0  0  0
 43 48  1  0  0  0  0
 44 45  1  0  0  0  0
 44 46  1  0  0  0  0
 50 51  1  0  0  0  0
 55 56  1  0  0  0  0
 56 57  1  0  0  0  0
 56 61  1  0  0  0  0
 57 58  1  0  0  0  0
 58 59  1  0  0  0  0
 58 71  1  0  0  0  0
 59 60  1  0  0  0  0
 60 61  1  0  0  0  0
 63 64  1  0  0  0  0
 64 65  1  0  0  0  0
 67 68  4  0  0  0  0
 67 72  4  0  0  0  0
 68 69  4  0  0  0  0
 69 70  4  0  0  0  0
 70 71  4  0  0  0  0
 71 72  4  0  0  0  0
M  END
$$$$
