mol_ETKDG1_56
  PyMOL3.1          3D                             0

 73 79  0  0  0  0  0  0  0  0999 V2000
   -2.8976   -4.3159   -4.1456 C   0  0  0  0  0  0  0  0  0  0  0  0
   -3.6102   -3.5175   -3.1144 C   0  0  0  0  0  0  0  0  0  0  0  0
   -4.4163   -2.4726   -3.6082 O   0  0  0  0  0  0  0  0  0  0  0  0
   -3.7540   -1.3549   -4.1675 C   0  0  0  0  0  0  0  0  0  0  0  0
   -4.4478   -4.3584   -2.2340 C   0  0  0  0  0  0  0  0  0  0  0  0
   -5.6106   -4.7882   -2.7017 N   0  0  0  0  0  0  0  0  0  0  0  0
   -6.3896   -5.6282   -1.9799 C   0  0  0  0  0  0  0  0  0  0  0  0
   -6.0029   -6.0843   -0.7121 C   0  0  0  0  0  0  0  0  0  0  0  0
   -4.7722   -5.6436   -0.2022 C   0  0  0  0  0  0  0  0  0  0  0  0
   -4.0119   -4.7458   -0.9712 C   0  0  0  0  0  0  0  0  0  0  0  0
   -2.7782   -4.2464   -0.4120 C   0  0  0  0  0  0  0  0  0  0  0  0
   -1.6042   -4.9299   -0.4719 N   0  0  0  0  0  0  0  0  0  0  0  0
   -1.3386   -6.2563   -1.1395 C   0  0  0  0  0  0  0  0  0  0  0  0
   -1.1714   -7.3668   -0.1965 C   0  0  0  0  0  0  0  0  0  0  0  0
   -2.6001   -2.9672    0.1964 C   0  0  0  0  0  0  0  0  0  0  0  0
   -3.5593   -1.8021    0.3832 C   0  0  0  0  0  0  0  0  0  0  0  0
   -4.4081   -1.7867    1.7422 C   0  0  0  0  0  0  0  0  0  0  0  0
   -5.2197   -3.0448    1.9452 C   0  0  0  0  0  0  0  0  0  0  0  0
   -5.4272   -0.6771    1.6310 C   0  0  0  0  0  0  0  0  0  0  0  0
   -3.5230   -1.5832    2.9822 C   0  0  0  0  0  0  0  0  0  0  0  0
   -3.1131   -0.1562    3.2634 O   0  0  0  0  0  0  0  0  0  0  0  0
   -3.3365    0.5187    4.5137 C   0  0  0  0  0  0  0  0  0  0  0  0
   -2.7582    1.9135    4.7088 C   0  0  0  0  0  0  0  0  0  0  0  0
   -2.4851    2.5138    3.4402 N   0  0  0  0  0  0  0  0  0  0  0  0
   -1.9728    3.8083    3.4406 N   0  0  0  0  0  0  0  0  0  0  0  0
   -0.8134    4.1079    2.7900 C   0  0  0  0  0  0  0  0  0  0  0  0
   -0.1002    3.0206    2.0405 C   0  0  0  0  0  0  0  0  0  0  0  0
    0.4398    3.5211    0.7920 N   0  0  0  0  0  0  0  0  0  0  0  0
   -0.1386    3.2932   -0.4051 C   0  0  0  0  0  0  0  0  0  0  0  0
    0.6413    3.7539   -1.5971 C   0  0  0  0  0  0  0  0  0  0  0  0
    0.0869    5.0663   -2.2533 C   0  0  0  0  0  0  0  0  0  0  0  0
    1.0420    5.6697   -3.2306 C   0  0  0  0  0  0  0  0  0  0  0  0
   -0.4025    6.0616   -1.2461 C   0  0  0  0  0  0  0  0  0  0  0  0
    0.6780    2.6221   -2.5334 N   0  0  0  0  0  0  0  0  0  0  0  0
    1.6346    1.6432   -2.3474 C   0  0  0  0  0  0  0  0  0  0  0  0
    1.7728    0.3820   -3.1723 C   0  0  0  0  0  0  0  0  0  0  0  0
    3.1861   -0.2277   -3.0908 C   0  0  0  0  0  0  0  0  0  0  0  0
    3.2562   -1.5530   -3.7975 C   0  0  0  0  0  0  0  0  0  0  0  0
    2.1572   -2.4396   -3.3534 N   0  0  0  0  0  0  0  0  0  0  0  0
    2.3305   -3.7242   -2.9027 C   0  0  0  0  0  0  0  0  0  0  0  0
    3.4601   -4.1668   -2.2220 C   0  0  0  0  0  0  0  0  0  0  0  0
    4.3531   -4.6785   -1.6595 C   0  0  0  0  0  0  0  0  0  0  0  0
    5.5066   -5.1419   -0.9869 C   0  0  0  0  0  0  0  0  0  0  0  0
    6.2234   -6.0610   -1.8035 N   0  0  0  0  0  0  0  0  0  0  0  0
    6.7916   -5.6199   -3.0230 C   0  0  0  0  0  0  0  0  0  0  0  0
    6.3570   -7.4320   -1.5028 C   0  0  0  0  0  0  0  0  0  0  0  0
    6.4122   -3.9579   -0.6296 C   0  0  0  0  0  0  0  0  0  0  0  0
    5.1091   -5.7780    0.3292 C   0  0  0  0  0  0  0  0  0  0  0  0
    1.3980   -4.5309   -3.0396 O   0  0  0  0  0  0  0  0  0  0  0  0
    0.8315   -1.8953   -3.3903 C   0  0  0  0  0  0  0  0  0  0  0  0
    0.7688   -0.6184   -2.6121 C   0  0  0  0  0  0  0  0  0  0  0  0
    2.4345    1.8015   -1.4029 O   0  0  0  0  0  0  0  0  0  0  0  0
   -0.3818    2.5070   -3.5538 C   0  0  0  0  0  0  0  0  0  0  0  0
   -1.1660    2.6454   -0.4892 O   0  0  0  0  0  0  0  0  0  0  0  0
    1.0701    2.4206    2.9237 C   0  0  0  0  0  0  0  0  0  0  0  0
    1.8470    1.2461    2.2525 C   0  0  0  0  0  0  0  0  0  0  0  0
    1.0039    0.0279    2.3675 C   0  0  0  0  0  0  0  0  0  0  0  0
    1.6646   -1.1446    1.8460 N   0  0  0  0  0  0  0  0  0  0  0  0
    3.0097   -1.3966    2.3843 C   0  0  0  0  0  0  0  0  0  0  0  0
    3.8415   -0.0977    2.3938 C   0  0  0  0  0  0  0  0  0  0  0  0
    3.0891    1.0316    2.9813 O   0  0  0  0  0  0  0  0  0  0  0  0
   -0.3183    5.2545    2.8267 O   0  0  0  0  0  0  0  0  0  0  0  0
   -2.7916    4.8184    4.1207 C   0  0  0  0  0  0  0  0  0  0  0  0
   -3.1544    4.3013    5.5294 C   0  0  0  0  0  0  0  0  0  0  0  0
   -3.7097    2.8684    5.4988 C   0  0  0  0  0  0  0  0  0  0  0  0
   -3.9778    0.0235    5.4603 O   0  0  0  0  0  0  0  0  0  0  0  0
   -1.2348   -2.9671    0.5303 C   0  0  0  0  0  0  0  0  0  0  0  0
   -0.6682   -4.1775    0.1146 C   0  0  0  0  0  0  0  0  0  0  0  0
    0.7312   -4.4132    0.3270 C   0  0  0  0  0  0  0  0  0  0  0  0
    1.4737   -3.3802    0.9048 C   0  0  0  0  0  0  0  0  0  0  0  0
    0.8901   -2.1688    1.2905 C   0  0  0  0  0  0  0  0  0  0  0  0
   -0.4877   -1.9573    1.1101 C   0  0  0  0  0  0  0  0  0  0  0  0
    1.5284    0.6231   -4.5099 F   0  0  0  0  0  0  0  0  0  0  0  0
  1  2  1  0  0  0  0
  2  3  1  0  0  0  0
  2  5  1  0  0  0  0
  3  4  1  0  0  0  0
  5  6  4  0  0  0  0
  5 10  4  0  0  0  0
  6  7  4  0  0  0  0
  7  8  4  0  0  0  0
  8  9  4  0  0  0  0
  9 10  4  0  0  0  0
 10 11  1  0  0  0  0
 11 12  4  0  0  0  0
 11 15  4  0  0  0  0
 12 13  1  0  0  0  0
 12 68  4  0  0  0  0
 13 14  1  0  0  0  0
 15 16  1  0  0  0  0
 15 67  4  0  0  0  0
 16 17  1  0  0  0  0
 17 18  1  0  0  0  0
 17 19  1  0  0  0  0
 17 20  1  0  0  0  0
 20 21  1  0  0  0  0
 21 22  1  0  0  0  0
 22 23  1  0  0  0  0
 22 66  2  0  0  0  0
 23 24  1  0  0  0  0
 23 65  1  0  0  0  0
 24 25  1  0  0  0  0
 25 26  1  0  0  0  0
 25 63  1  0  0  0  0
 26 27  1  0  0  0  0
 26 62  2  0  0  0  0
 27 28  1  0  0  0  0
 27 55  1  0  0  0  0
 28 29  1  0  0  0  0
 29 30  1  0  0  0  0
 29 54  2  0  0  0  0
 30 31  1  0  0  0  0
 30 34  1  0  0  0  0
 31 32  1  0  0  0  0
 31 33  1  0  0  0  0
 34 35  1  0  0  0  0
 34 53  1  0  0  0  0
 35 36  1  0  0  0  0
 35 52  2  0  0  0  0
 36 37  1  0  0  0  0
 36 51  1  0  0  0  0
 36 73  1  0  0  0  0
 37 38  1  0  0  0  0
 38 39  1  0  0  0  0
 39 40  1  0  0  0  0
 39 50  1  0  0  0  0
 40 41  1  0  0  0  0
 40 49  2  0  0  0  0
 41 42  1  0  0  0  0
 42 43  1  0  0  0  0
 43 44  1  0  0  0  0
 43 47  1  0  0  0  0
 43 48  1  0  0  0  0
 44 45  1  0  0  0  0
 44 46  1  0  0  0  0
 50 51  1  0  0  0  0
 55 56  1  0  0  0  0
 56 57  1  0  0  0  0
 56 61  1  0  0  0  0
 57 58  1  0  0  0  0
 58 59  1  0  0  0  0
 58 71  1  0  0  0  0
 59 60  1  0  0  0  0
 60 61  1  0  0  0  0
 63 64  1  0  0  0  0
 64 65  1  0  0  0  0
 67 68  4  0  0  0  0
 67 72  4  0  0  0  0
 68 69  4  0  0  0  0
 69 70  4  0  0  0  0
 70 71  4  0  0  0  0
 71 72  4  0  0  0  0
M  END
$$$$
