mol_ETKDG3_161
  PyMOL3.1          3D                             0

 73 79  0  0  0  0  0  0  0  0999 V2000
   -2.4504    0.7452   -3.1021 C   0  0  0  0  0  0  0  0  0  0  0  0
   -1.2665    1.0503   -3.9164 C   0  0  0  0  0  0  0  0  0  0  0  0
   -1.4023    2.1678   -4.7779 O   0  0  0  0  0  0  0  0  0  0  0  0
   -1.6287    3.4167   -4.1517 C   0  0  0  0  0  0  0  0  0  0  0  0
   -0.8574   -0.1068   -4.7315 C   0  0  0  0  0  0  0  0  0  0  0  0
   -1.6066   -0.4227   -5.7691 N   0  0  0  0  0  0  0  0  0  0  0  0
   -1.3044   -1.4709   -6.5595 C   0  0  0  0  0  0  0  0  0  0  0  0
   -0.2045   -2.2893   -6.2973 C   0  0  0  0  0  0  0  0  0  0  0  0
    0.6024   -1.9768   -5.1982 C   0  0  0  0  0  0  0  0  0  0  0  0
    0.2492   -0.8816   -4.4002 C   0  0  0  0  0  0  0  0  0  0  0  0
    1.0737   -0.5639   -3.2648 C   0  0  0  0  0  0  0  0  0  0  0  0
    2.2030    0.1629   -3.3807 N   0  0  0  0  0  0  0  0  0  0  0  0
    2.7924    0.7573   -4.6275 C   0  0  0  0  0  0  0  0  0  0  0  0
    3.9507    0.0190   -5.1294 C   0  0  0  0  0  0  0  0  0  0  0  0
    0.7975   -0.8541   -1.9015 C   0  0  0  0  0  0  0  0  0  0  0  0
   -0.3653   -1.5435   -1.2447 C   0  0  0  0  0  0  0  0  0  0  0  0
   -0.2426   -3.1128   -1.0606 C   0  0  0  0  0  0  0  0  0  0  0  0
   -0.1233   -3.8458   -2.3775 C   0  0  0  0  0  0  0  0  0  0  0  0
   -1.5297   -3.6012   -0.4635 C   0  0  0  0  0  0  0  0  0  0  0  0
    0.9304   -3.5039   -0.1821 C   0  0  0  0  0  0  0  0  0  0  0  0
    0.6759   -3.3813    1.3025 O   0  0  0  0  0  0  0  0  0  0  0  0
    1.0730   -4.3492    2.2796 C   0  0  0  0  0  0  0  0  0  0  0  0
    0.7839   -4.0852    3.7469 C   0  0  0  0  0  0  0  0  0  0  0  0
   -0.1679   -3.0371    3.8744 N   0  0  0  0  0  0  0  0  0  0  0  0
   -0.5758   -2.6895    5.1573 N   0  0  0  0  0  0  0  0  0  0  0  0
   -0.4881   -1.4118    5.6063 C   0  0  0  0  0  0  0  0  0  0  0  0
    0.0981   -0.3919    4.6993 C   0  0  0  0  0  0  0  0  0  0  0  0
   -0.6276    0.8520    4.7783 N   0  0  0  0  0  0  0  0  0  0  0  0
   -1.5545    1.2199    3.8851 C   0  0  0  0  0  0  0  0  0  0  0  0
   -2.0814    2.6037    4.0566 C   0  0  0  0  0  0  0  0  0  0  0  0
   -3.5536    2.7045    4.5172 C   0  0  0  0  0  0  0  0  0  0  0  0
   -3.8898    4.0247    5.1088 C   0  0  0  0  0  0  0  0  0  0  0  0
   -4.0563    1.5414    5.2835 C   0  0  0  0  0  0  0  0  0  0  0  0
   -1.8546    3.2877    2.8007 N   0  0  0  0  0  0  0  0  0  0  0  0
   -0.6213    3.8307    2.6006 C   0  0  0  0  0  0  0  0  0  0  0  0
   -0.1650    4.4903    1.3351 C   0  0  0  0  0  0  0  0  0  0  0  0
    1.1449    5.2597    1.5313 C   0  0  0  0  0  0  0  0  0  0  0  0
    1.6720    5.7717    0.2564 C   0  0  0  0  0  0  0  0  0  0  0  0
    1.6771    4.7345   -0.7856 N   0  0  0  0  0  0  0  0  0  0  0  0
    2.7243    4.4958   -1.6011 C   0  0  0  0  0  0  0  0  0  0  0  0
    4.0159    4.7882   -1.2446 C   0  0  0  0  0  0  0  0  0  0  0  0
    5.1358    4.9747   -1.0927 C   0  0  0  0  0  0  0  0  0  0  0  0
    6.4736    5.2138   -0.7650 C   0  0  0  0  0  0  0  0  0  0  0  0
    7.2917    5.2250   -1.9228 N   0  0  0  0  0  0  0  0  0  0  0  0
    8.3077    6.1620   -2.1129 C   0  0  0  0  0  0  0  0  0  0  0  0
    7.1886    4.1953   -2.8856 C   0  0  0  0  0  0  0  0  0  0  0  0
    6.5318    6.5345   -0.0214 C   0  0  0  0  0  0  0  0  0  0  0  0
    6.9883    4.1415    0.1976 C   0  0  0  0  0  0  0  0  0  0  0  0
    2.5233    3.9348   -2.6879 O   0  0  0  0  0  0  0  0  0  0  0  0
    0.5099    3.9413   -0.9476 C   0  0  0  0  0  0  0  0  0  0  0  0
    0.0726    3.3773    0.3316 C   0  0  0  0  0  0  0  0  0  0  0  0
    0.2007    3.7423    3.5315 O   0  0  0  0  0  0  0  0  0  0  0  0
   -2.9043    3.2654    1.7704 C   0  0  0  0  0  0  0  0  0  0  0  0
   -1.8210    0.5129    2.9306 O   0  0  0  0  0  0  0  0  0  0  0  0
    1.6164   -0.1741    5.0803 C   0  0  0  0  0  0  0  0  0  0  0  0
    2.4057    0.7373    4.1138 C   0  0  0  0  0  0  0  0  0  0  0  0
    2.6068   -0.0258    2.8584 C   0  0  0  0  0  0  0  0  0  0  0  0
    3.4248    0.6870    1.9256 N   0  0  0  0  0  0  0  0  0  0  0  0
    4.7034    1.1587    2.4468 C   0  0  0  0  0  0  0  0  0  0  0  0
    4.5193    1.8285    3.8085 C   0  0  0  0  0  0  0  0  0  0  0  0
    3.7032    1.0035    4.7135 O   0  0  0  0  0  0  0  0  0  0  0  0
   -0.8379   -1.0820    6.7502 O   0  0  0  0  0  0  0  0  0  0  0  0
   -1.1615   -3.7592    5.9497 C   0  0  0  0  0  0  0  0  0  0  0  0
   -0.2311   -4.9710    5.9127 C   0  0  0  0  0  0  0  0  0  0  0  0
    0.2182   -5.3322    4.4912 C   0  0  0  0  0  0  0  0  0  0  0  0
    1.6504   -5.4151    2.0046 O   0  0  0  0  0  0  0  0  0  0  0  0
    1.8672   -0.2589   -1.2246 C   0  0  0  0  0  0  0  0  0  0  0  0
    2.7004    0.3411   -2.1611 C   0  0  0  0  0  0  0  0  0  0  0  0
    3.8631    1.0340   -1.7213 C   0  0  0  0  0  0  0  0  0  0  0  0
    4.0613    1.1248   -0.3537 C   0  0  0  0  0  0  0  0  0  0  0  0
    3.1985    0.5425    0.5645 C   0  0  0  0  0  0  0  0  0  0  0  0
    2.0885   -0.1804    0.1356 C   0  0  0  0  0  0  0  0  0  0  0  0
   -1.1101    5.3793    0.8726 F   0  0  0  0  0  0  0  0  0  0  0  0
  1  2  1  0  0  0  0
  2  3  1  0  0  0  0
  2  5  1  0  0  0  0
  3  4  1  0  0  0  0
  5  6  4  0  0  0  0
  5 10  4  0  0  0  0
  6  7  4  0  0  0  0
  7  8  4  0  0  0  0
  8  9  4  0  0  0  0
  9 10  4  0  0  0  0
 10 11  1  0  0  0  0
 11 12  4  0  0  0  0
 11 15  4  0  0  0  0
 12 13  1  0  0  0  0
 12 68  4  0  0  0  0
 13 14  1  0  0  0  0
 15 16  1  0  0  0  0
 15 67  4  0  0  0  0
 16 17  1  0  0  0  0
 17 18  1  0  0  0  0
 17 19  1  0  0  0  0
 17 20  1  0  0  0  0
 20 21  1  0  0  0  0
 21 22  1  0  0  0  0
 22 23  1  0  0  0  0
 22 66  2  0  0  0  0
 23 24  1  0  0  0  0
 23 65  1  0  0  0  0
 24 25  1  0  0  0  0
 25 26  1  0  0  0  0
 25 63  1  0  0  0  0
 26 27  1  0  0  0  0
 26 62  2  0  0  0  0
 27 28  1  0  0  0  0
 27 55  1  0  0  0  0
 28 29  1  0  0  0  0
 29 30  1  0  0  0  0
 29 54  2  0  0  0  0
 30 31  1  0  0  0  0
 30 34  1  0  0  0  0
 31 32  1  0  0  0  0
 31 33  1  0  0  0  0
 34 35  1  0  0  0  0
 34 53  1  0  0  0  0
 35 36  1  0  0  0  0
 35 52  2  0  0  0  0
 36 37  1  0  0  0  0
 36 51  1  0  0  0  0
 36 73  1  0  0  0  0
 37 38  1  0  0  0  0
 38 39  1  0  0  0  0
 39 40  1  0  0  0  0
 39 50  1  0  0  0  0
 40 41  1  0  0  0  0
 40 49  2  0  0  0  0
 41 42  1  0  0  0  0
 42 43  1  0  0  0  0
 43 44  1  0  0  0  0
 43 47  1  0  0  0  0
 43 48  1  0  0  0  0
 44 45  1  0  0  0  0
 44 46  1  0  0  0  0
 50 51  1  0  0  0  0
 55 56  1  0  0  0  0
 56 57  1  0  0  0  0
 56 61  1  0  0  0  0
 57 58  1  0  0  0  0
 58 59  1  0  0  0  0
 58 71  1  0  0  0  0
 59 60  1  0  0  0  0
 60 61  1  0  0  0  0
 63 64  1  0  0  0  0
 64 65  1  0  0  0  0
 67 68  4  0  0  0  0
 67 72  4  0  0  0  0
 68 69  4  0  0  0  0
 69 70  4  0  0  0  0
 70 71  4  0  0  0  0
 71 72  4  0  0  0  0
M  END
$$$$
