mol_ETKDG1_63
  PyMOL3.1          3D                             0

 73 79  0  0  0  0  0  0  0  0999 V2000
    4.7954   -6.1568    2.9899 C   0  0  0  0  0  0  0  0  0  0  0  0
    5.2442   -4.7393    2.9098 C   0  0  0  0  0  0  0  0  0  0  0  0
    6.5538   -4.5526    2.4086 O   0  0  0  0  0  0  0  0  0  0  0  0
    6.7333   -4.7463    1.0200 C   0  0  0  0  0  0  0  0  0  0  0  0
    5.1722   -4.0489    4.2122 C   0  0  0  0  0  0  0  0  0  0  0  0
    6.0630   -4.3855    5.1367 N   0  0  0  0  0  0  0  0  0  0  0  0
    6.0171   -3.8547    6.3801 C   0  0  0  0  0  0  0  0  0  0  0  0
    5.0245   -2.9360    6.7456 C   0  0  0  0  0  0  0  0  0  0  0  0
    4.0685   -2.5765    5.7828 C   0  0  0  0  0  0  0  0  0  0  0  0
    4.1742   -3.1181    4.4906 C   0  0  0  0  0  0  0  0  0  0  0  0
    3.2165   -2.6904    3.4932 C   0  0  0  0  0  0  0  0  0  0  0  0
    2.0101   -3.2898    3.3219 N   0  0  0  0  0  0  0  0  0  0  0  0
    1.4764   -4.5052    4.0413 C   0  0  0  0  0  0  0  0  0  0  0  0
    0.3915   -4.1974    4.9786 C   0  0  0  0  0  0  0  0  0  0  0  0
    3.4002   -1.6503    2.5332 C   0  0  0  0  0  0  0  0  0  0  0  0
    4.5988   -0.8001    2.1821 C   0  0  0  0  0  0  0  0  0  0  0  0
    4.7976    0.5664    2.9713 C   0  0  0  0  0  0  0  0  0  0  0  0
    5.0239    0.3616    4.4558 C   0  0  0  0  0  0  0  0  0  0  0  0
    6.0879    1.1803    2.4735 C   0  0  0  0  0  0  0  0  0  0  0  0
    3.6432    1.5569    2.7731 C   0  0  0  0  0  0  0  0  0  0  0  0
    3.7279    2.3614    1.4928 O   0  0  0  0  0  0  0  0  0  0  0  0
    3.5085    3.7659    1.3760 C   0  0  0  0  0  0  0  0  0  0  0  0
    3.5975    4.4349    0.0045 C   0  0  0  0  0  0  0  0  0  0  0  0
    4.2464    3.5726   -0.9494 N   0  0  0  0  0  0  0  0  0  0  0  0
    4.4401    4.0594   -2.2506 N   0  0  0  0  0  0  0  0  0  0  0  0
    4.0135    3.3621   -3.3572 C   0  0  0  0  0  0  0  0  0  0  0  0
    3.3113    2.0514   -3.1500 C   0  0  0  0  0  0  0  0  0  0  0  0
    3.7019    1.0487   -4.1257 N   0  0  0  0  0  0  0  0  0  0  0  0
    4.5448    0.0330   -3.8398 C   0  0  0  0  0  0  0  0  0  0  0  0
    4.7331   -0.9773   -4.9229 C   0  0  0  0  0  0  0  0  0  0  0  0
    6.0738   -0.8049   -5.7220 C   0  0  0  0  0  0  0  0  0  0  0  0
    6.2068   -1.7833   -6.8448 C   0  0  0  0  0  0  0  0  0  0  0  0
    6.2711    0.6128   -6.1939 C   0  0  0  0  0  0  0  0  0  0  0  0
    4.5880   -2.2952   -4.3047 N   0  0  0  0  0  0  0  0  0  0  0  0
    3.3205   -2.8145   -4.1438 C   0  0  0  0  0  0  0  0  0  0  0  0
    3.0155   -4.1367   -3.4911 C   0  0  0  0  0  0  0  0  0  0  0  0
    1.6676   -4.7311   -3.9140 C   0  0  0  0  0  0  0  0  0  0  0  0
    1.4271   -6.0045   -3.1857 C   0  0  0  0  0  0  0  0  0  0  0  0
    1.5905   -5.8293   -1.7245 N   0  0  0  0  0  0  0  0  0  0  0  0
    0.6716   -6.2826   -0.8277 C   0  0  0  0  0  0  0  0  0  0  0  0
   -0.5004   -6.8513   -1.2647 C   0  0  0  0  0  0  0  0  0  0  0  0
   -1.5043   -7.3538   -1.5373 C   0  0  0  0  0  0  0  0  0  0  0  0
   -2.7174   -7.8551   -2.0217 C   0  0  0  0  0  0  0  0  0  0  0  0
   -3.8017   -7.3362   -1.2654 N   0  0  0  0  0  0  0  0  0  0  0  0
   -5.0373   -7.0540   -1.8673 C   0  0  0  0  0  0  0  0  0  0  0  0
   -3.8037   -7.5127    0.1421 C   0  0  0  0  0  0  0  0  0  0  0  0
   -2.8354   -7.4951   -3.5010 C   0  0  0  0  0  0  0  0  0  0  0  0
   -2.7464   -9.3845   -1.9586 C   0  0  0  0  0  0  0  0  0  0  0  0
    0.8765   -6.1683    0.4002 O   0  0  0  0  0  0  0  0  0  0  0  0
    2.7764   -5.1696   -1.2597 C   0  0  0  0  0  0  0  0  0  0  0  0
    3.0072   -3.9003   -1.9826 C   0  0  0  0  0  0  0  0  0  0  0  0
    2.3589   -2.1264   -4.5527 O   0  0  0  0  0  0  0  0  0  0  0  0
    5.7874   -2.9634   -3.7643 C   0  0  0  0  0  0  0  0  0  0  0  0
    5.0142   -0.0982   -2.7193 O   0  0  0  0  0  0  0  0  0  0  0  0
    1.7463    2.2754   -3.2135 C   0  0  0  0  0  0  0  0  0  0  0  0
    0.9068    1.0115   -2.8669 C   0  0  0  0  0  0  0  0  0  0  0  0
    0.9972    0.7949   -1.3905 C   0  0  0  0  0  0  0  0  0  0  0  0
    0.1507   -0.2849   -0.9396 N   0  0  0  0  0  0  0  0  0  0  0  0
   -1.2470   -0.2142   -1.3846 C   0  0  0  0  0  0  0  0  0  0  0  0
   -1.3373    0.1471   -2.8810 C   0  0  0  0  0  0  0  0  0  0  0  0
   -0.4761    1.2853   -3.2276 O   0  0  0  0  0  0  0  0  0  0  0  0
    4.1551    3.8024   -4.5163 O   0  0  0  0  0  0  0  0  0  0  0  0
    5.1824    5.3199   -2.3541 C   0  0  0  0  0  0  0  0  0  0  0  0
    4.5662    6.3542   -1.3856 C   0  0  0  0  0  0  0  0  0  0  0  0
    4.3650    5.7949    0.0362 C   0  0  0  0  0  0  0  0  0  0  0  0
    3.2244    4.4842    2.3530 O   0  0  0  0  0  0  0  0  0  0  0  0
    2.1805   -1.6406    1.8260 C   0  0  0  0  0  0  0  0  0  0  0  0
    1.3688   -2.6574    2.3267 C   0  0  0  0  0  0  0  0  0  0  0  0
    0.0803   -2.8950    1.7242 C   0  0  0  0  0  0  0  0  0  0  0  0
   -0.2872   -2.0873    0.6457 C   0  0  0  0  0  0  0  0  0  0  0  0
    0.5466   -1.0702    0.1566 C   0  0  0  0  0  0  0  0  0  0  0  0
    1.7965   -0.8333    0.7586 C   0  0  0  0  0  0  0  0  0  0  0  0
    3.9564   -5.0799   -3.8279 F   0  0  0  0  0  0  0  0  0  0  0  0
  1  2  1  0  0  0  0
  2  3  1  0  0  0  0
  2  5  1  0  0  0  0
  3  4  1  0  0  0  0
  5  6  4  0  0  0  0
  5 10  4  0  0  0  0
  6  7  4  0  0  0  0
  7  8  4  0  0  0  0
  8  9  4  0  0  0  0
  9 10  4  0  0  0  0
 10 11  1  0  0  0  0
 11 12  4  0  0  0  0
 11 15  4  0  0  0  0
 12 13  1  0  0  0  0
 12 68  4  0  0  0  0
 13 14  1  0  0  0  0
 15 16  1  0  0  0  0
 15 67  4  0  0  0  0
 16 17  1  0  0  0  0
 17 18  1  0  0  0  0
 17 19  1  0  0  0  0
 17 20  1  0  0  0  0
 20 21  1  0  0  0  0
 21 22  1  0  0  0  0
 22 23  1  0  0  0  0
 22 66  2  0  0  0  0
 23 24  1  0  0  0  0
 23 65  1  0  0  0  0
 24 25  1  0  0  0  0
 25 26  1  0  0  0  0
 25 63  1  0  0  0  0
 26 27  1  0  0  0  0
 26 62  2  0  0  0  0
 27 28  1  0  0  0  0
 27 55  1  0  0  0  0
 28 29  1  0  0  0  0
 29 30  1  0  0  0  0
 29 54  2  0  0  0  0
 30 31  1  0  0  0  0
 30 34  1  0  0  0  0
 31 32  1  0  0  0  0
 31 33  1  0  0  0  0
 34 35  1  0  0  0  0
 34 53  1  0  0  0  0
 35 36  1  0  0  0  0
 35 52  2  0  0  0  0
 36 37  1  0  0  0  0
 36 51  1  0  0  0  0
 36 73  1  0  0  0  0
 37 38  1  0  0  0  0
 38 39  1  0  0  0  0
 39 40  1  0  0  0  0
 39 50  1  0  0  0  0
 40 41  1  0  0  0  0
 40 49  2  0  0  0  0
 41 42  1  0  0  0  0
 42 43  1  0  0  0  0
 43 44  1  0  0  0  0
 43 47  1  0  0  0  0
 43 48  1  0  0  0  0
 44 45  1  0  0  0  0
 44 46  1  0  0  0  0
 50 51  1  0  0  0  0
 55 56  1  0  0  0  0
 56 57  1  0  0  0  0
 56 61  1  0  0  0  0
 57 58  1  0  0  0  0
 58 59  1  0  0  0  0
 58 71  1  0  0  0  0
 59 60  1  0  0  0  0
 60 61  1  0  0  0  0
 63 64  1  0  0  0  0
 64 65  1  0  0  0  0
 67 68  4  0  0  0  0
 67 72  4  0  0  0  0
 68 69  4  0  0  0  0
 69 70  4  0  0  0  0
 70 71  4  0  0  0  0
 71 72  4  0  0  0  0
M  END
$$$$
