mol_ETKDG2_146
  PyMOL3.1          3D                             0

 73 79  0  0  0  0  0  0  0  0999 V2000
    5.8317    3.4737    0.6908 C   0  0  0  0  0  0  0  0  0  0  0  0
    5.4597    2.6562   -0.4915 C   0  0  0  0  0  0  0  0  0  0  0  0
    6.4148    1.6632   -0.8458 O   0  0  0  0  0  0  0  0  0  0  0  0
    6.4711    0.5184   -0.0125 C   0  0  0  0  0  0  0  0  0  0  0  0
    5.1918    3.4776   -1.6962 C   0  0  0  0  0  0  0  0  0  0  0  0
    6.2299    3.9415   -2.3756 N   0  0  0  0  0  0  0  0  0  0  0  0
    6.0645    4.7609   -3.4399 C   0  0  0  0  0  0  0  0  0  0  0  0
    4.7926    5.1668   -3.8659 C   0  0  0  0  0  0  0  0  0  0  0  0
    3.6758    4.6954   -3.1555 C   0  0  0  0  0  0  0  0  0  0  0  0
    3.8837    3.8216   -2.0794 C   0  0  0  0  0  0  0  0  0  0  0  0
    2.7361    3.2837   -1.3766 C   0  0  0  0  0  0  0  0  0  0  0  0
    2.1242    3.9288   -0.3413 N   0  0  0  0  0  0  0  0  0  0  0  0
    2.4774    5.2732    0.2516 C   0  0  0  0  0  0  0  0  0  0  0  0
    1.5892    6.3566   -0.1941 C   0  0  0  0  0  0  0  0  0  0  0  0
    2.1535    1.9922   -1.5881 C   0  0  0  0  0  0  0  0  0  0  0  0
    2.5059    0.8684   -2.5617 C   0  0  0  0  0  0  0  0  0  0  0  0
    1.7412    0.8991   -3.9828 C   0  0  0  0  0  0  0  0  0  0  0  0
    2.3421   -0.2063   -4.8445 C   0  0  0  0  0  0  0  0  0  0  0  0
    2.0098    2.1558   -4.7356 C   0  0  0  0  0  0  0  0  0  0  0  0
    0.2110    0.7081   -3.8818 C   0  0  0  0  0  0  0  0  0  0  0  0
   -0.3013   -0.7089   -3.7747 O   0  0  0  0  0  0  0  0  0  0  0  0
   -1.4180   -1.2317   -4.5123 C   0  0  0  0  0  0  0  0  0  0  0  0
   -1.8618   -2.6749   -4.2472 C   0  0  0  0  0  0  0  0  0  0  0  0
   -0.8622   -3.3439   -3.4702 N   0  0  0  0  0  0  0  0  0  0  0  0
   -1.0591   -4.6820   -3.1477 N   0  0  0  0  0  0  0  0  0  0  0  0
   -1.0106   -5.1013   -1.8438 C   0  0  0  0  0  0  0  0  0  0  0  0
   -0.7517   -4.0898   -0.7629 C   0  0  0  0  0  0  0  0  0  0  0  0
    0.0909   -4.6309    0.2866 N   0  0  0  0  0  0  0  0  0  0  0  0
    1.3937   -4.3031    0.4141 C   0  0  0  0  0  0  0  0  0  0  0  0
    2.0833   -4.8119    1.6380 C   0  0  0  0  0  0  0  0  0  0  0  0
    2.9473   -6.0949    1.4284 C   0  0  0  0  0  0  0  0  0  0  0  0
    3.2692   -6.7972    2.7068 C   0  0  0  0  0  0  0  0  0  0  0  0
    2.4549   -7.0045    0.3507 C   0  0  0  0  0  0  0  0  0  0  0  0
    2.8604   -3.6896    2.1828 N   0  0  0  0  0  0  0  0  0  0  0  0
    2.2164   -2.7824    3.0115 C   0  0  0  0  0  0  0  0  0  0  0  0
    2.8516   -1.5301    3.5803 C   0  0  0  0  0  0  0  0  0  0  0  0
    2.1099   -0.9570    4.7996 C   0  0  0  0  0  0  0  0  0  0  0  0
    2.7072    0.3440    5.2325 C   0  0  0  0  0  0  0  0  0  0  0  0
    2.8792    1.2791    4.0948 N   0  0  0  0  0  0  0  0  0  0  0  0
    2.5116    2.5996    4.1249 C   0  0  0  0  0  0  0  0  0  0  0  0
    1.6261    3.1021    5.0635 C   0  0  0  0  0  0  0  0  0  0  0  0
    0.9153    3.6552    5.7960 C   0  0  0  0  0  0  0  0  0  0  0  0
   -0.0111    4.1682    6.7359 C   0  0  0  0  0  0  0  0  0  0  0  0
    0.0459    5.5947    6.7733 N   0  0  0  0  0  0  0  0  0  0  0  0
    0.5439    6.3004    7.8837 C   0  0  0  0  0  0  0  0  0  0  0  0
   -0.2517    6.3522    5.6119 C   0  0  0  0  0  0  0  0  0  0  0  0
    0.2983    3.5541    8.0942 C   0  0  0  0  0  0  0  0  0  0  0  0
   -1.4305    3.7318    6.3836 C   0  0  0  0  0  0  0  0  0  0  0  0
    2.9448    3.3768    3.2498 O   0  0  0  0  0  0  0  0  0  0  0  0
    3.4752    0.7635    2.8990 C   0  0  0  0  0  0  0  0  0  0  0  0
    2.8264   -0.4951    2.4602 C   0  0  0  0  0  0  0  0  0  0  0  0
    1.0132   -2.9914    3.2719 O   0  0  0  0  0  0  0  0  0  0  0  0
    4.2509   -3.5040    1.7269 C   0  0  0  0  0  0  0  0  0  0  0  0
    1.9181   -3.5266   -0.3742 O   0  0  0  0  0  0  0  0  0  0  0  0
   -2.1073   -3.5618   -0.1342 C   0  0  0  0  0  0  0  0  0  0  0  0
   -1.9079   -2.4362    0.9341 C   0  0  0  0  0  0  0  0  0  0  0  0
   -1.5759   -1.1668    0.2117 C   0  0  0  0  0  0  0  0  0  0  0  0
   -1.4677   -0.0299    1.1057 N   0  0  0  0  0  0  0  0  0  0  0  0
   -2.6120    0.1546    2.0137 C   0  0  0  0  0  0  0  0  0  0  0  0
   -3.0288   -1.1842    2.6562 C   0  0  0  0  0  0  0  0  0  0  0  0
   -3.1597   -2.2565    1.6538 O   0  0  0  0  0  0  0  0  0  0  0  0
   -1.2063   -6.2913   -1.5333 O   0  0  0  0  0  0  0  0  0  0  0  0
   -1.2545   -5.5895   -4.2871 C   0  0  0  0  0  0  0  0  0  0  0  0
   -2.3363   -4.9995   -5.2253 C   0  0  0  0  0  0  0  0  0  0  0  0
   -2.0965   -3.5095   -5.5531 C   0  0  0  0  0  0  0  0  0  0  0  0
   -2.0499   -0.5766   -5.3566 O   0  0  0  0  0  0  0  0  0  0  0  0
    1.1477    1.9318   -0.6022 C   0  0  0  0  0  0  0  0  0  0  0  0
    1.1566    3.1290    0.1287 C   0  0  0  0  0  0  0  0  0  0  0  0
    0.2310    3.3001    1.2144 C   0  0  0  0  0  0  0  0  0  0  0  0
   -0.6214    2.2268    1.5071 C   0  0  0  0  0  0  0  0  0  0  0  0
   -0.6068    1.0311    0.7731 C   0  0  0  0  0  0  0  0  0  0  0  0
    0.2930    0.8762   -0.3002 C   0  0  0  0  0  0  0  0  0  0  0  0
    4.1463   -1.7744    4.0002 F   0  0  0  0  0  0  0  0  0  0  0  0
  1  2  1  0  0  0  0
  2  3  1  0  0  0  0
  2  5  1  0  0  0  0
  3  4  1  0  0  0  0
  5  6  4  0  0  0  0
  5 10  4  0  0  0  0
  6  7  4  0  0  0  0
  7  8  4  0  0  0  0
  8  9  4  0  0  0  0
  9 10  4  0  0  0  0
 10 11  1  0  0  0  0
 11 12  4  0  0  0  0
 11 15  4  0  0  0  0
 12 13  1  0  0  0  0
 12 68  4  0  0  0  0
 13 14  1  0  0  0  0
 15 16  1  0  0  0  0
 15 67  4  0  0  0  0
 16 17  1  0  0  0  0
 17 18  1  0  0  0  0
 17 19  1  0  0  0  0
 17 20  1  0  0  0  0
 20 21  1  0  0  0  0
 21 22  1  0  0  0  0
 22 23  1  0  0  0  0
 22 66  2  0  0  0  0
 23 24  1  0  0  0  0
 23 65  1  0  0  0  0
 24 25  1  0  0  0  0
 25 26  1  0  0  0  0
 25 63  1  0  0  0  0
 26 27  1  0  0  0  0
 26 62  2  0  0  0  0
 27 28  1  0  0  0  0
 27 55  1  0  0  0  0
 28 29  1  0  0  0  0
 29 30  1  0  0  0  0
 29 54  2  0  0  0  0
 30 31  1  0  0  0  0
 30 34  1  0  0  0  0
 31 32  1  0  0  0  0
 31 33  1  0  0  0  0
 34 35  1  0  0  0  0
 34 53  1  0  0  0  0
 35 36  1  0  0  0  0
 35 52  2  0  0  0  0
 36 37  1  0  0  0  0
 36 51  1  0  0  0  0
 36 73  1  0  0  0  0
 37 38  1  0  0  0  0
 38 39  1  0  0  0  0
 39 40  1  0  0  0  0
 39 50  1  0  0  0  0
 40 41  1  0  0  0  0
 40 49  2  0  0  0  0
 41 42  1  0  0  0  0
 42 43  1  0  0  0  0
 43 44  1  0  0  0  0
 43 47  1  0  0  0  0
 43 48  1  0  0  0  0
 44 45  1  0  0  0  0
 44 46  1  0  0  0  0
 50 51  1  0  0  0  0
 55 56  1  0  0  0  0
 56 57  1  0  0  0  0
 56 61  1  0  0  0  0
 57 58  1  0  0  0  0
 58 59  1  0  0  0  0
 58 71  1  0  0  0  0
 59 60  1  0  0  0  0
 60 61  1  0  0  0  0
 63 64  1  0  0  0  0
 64 65  1  0  0  0  0
 67 68  4  0  0  0  0
 67 72  4  0  0  0  0
 68 69  4  0  0  0  0
 69 70  4  0  0  0  0
 70 71  4  0  0  0  0
 71 72  4  0  0  0  0
M  END
$$$$
