mol_ETKDG1_51
  PyMOL3.1          3D                             0

 73 79  0  0  0  0  0  0  0  0999 V2000
    3.0537   -2.2298    4.4122 C   0  0  0  0  0  0  0  0  0  0  0  0
    1.6465   -2.6549    4.2858 C   0  0  0  0  0  0  0  0  0  0  0  0
    1.4810   -4.0381    3.9697 O   0  0  0  0  0  0  0  0  0  0  0  0
    1.6123   -4.4170    2.6298 C   0  0  0  0  0  0  0  0  0  0  0  0
    0.8440   -2.3856    5.4951 C   0  0  0  0  0  0  0  0  0  0  0  0
    0.7765   -3.3406    6.4068 N   0  0  0  0  0  0  0  0  0  0  0  0
    0.0756   -3.1760    7.5513 C   0  0  0  0  0  0  0  0  0  0  0  0
   -0.5986   -1.9849    7.8329 C   0  0  0  0  0  0  0  0  0  0  0  0
   -0.5283   -0.9536    6.8933 C   0  0  0  0  0  0  0  0  0  0  0  0
    0.1912   -1.1664    5.7040 C   0  0  0  0  0  0  0  0  0  0  0  0
    0.2172   -0.0931    4.7402 C   0  0  0  0  0  0  0  0  0  0  0  0
    1.0208    0.9959    4.8636 N   0  0  0  0  0  0  0  0  0  0  0  0
    2.0685    1.2495    5.9149 C   0  0  0  0  0  0  0  0  0  0  0  0
    1.6983    2.2920    6.8770 C   0  0  0  0  0  0  0  0  0  0  0  0
   -0.5294   -0.0219    3.5284 C   0  0  0  0  0  0  0  0  0  0  0  0
   -1.3676   -1.0362    2.8109 C   0  0  0  0  0  0  0  0  0  0  0  0
   -2.8903   -1.2102    3.1583 C   0  0  0  0  0  0  0  0  0  0  0  0
   -3.1158   -1.6005    4.5992 C   0  0  0  0  0  0  0  0  0  0  0  0
   -3.3744   -2.3835    2.3470 C   0  0  0  0  0  0  0  0  0  0  0  0
   -3.7502    0.0234    2.8506 C   0  0  0  0  0  0  0  0  0  0  0  0
   -4.2207    0.1564    1.4191 O   0  0  0  0  0  0  0  0  0  0  0  0
   -5.5174    0.5797    1.0140 C   0  0  0  0  0  0  0  0  0  0  0  0
   -5.7992    0.7440   -0.4715 C   0  0  0  0  0  0  0  0  0  0  0  0
   -4.7925    0.0730   -1.2420 N   0  0  0  0  0  0  0  0  0  0  0  0
   -4.9024    0.0994   -2.6317 N   0  0  0  0  0  0  0  0  0  0  0  0
   -3.8603    0.5153   -3.4114 C   0  0  0  0  0  0  0  0  0  0  0  0
   -2.6087    1.0052   -2.7345 C   0  0  0  0  0  0  0  0  0  0  0  0
   -1.4189    0.5121   -3.4122 N   0  0  0  0  0  0  0  0  0  0  0  0
   -0.5165   -0.3243   -2.8311 C   0  0  0  0  0  0  0  0  0  0  0  0
    0.6845   -0.6459   -3.6548 C   0  0  0  0  0  0  0  0  0  0  0  0
    0.7090   -2.1002   -4.2115 C   0  0  0  0  0  0  0  0  0  0  0  0
    1.5159   -2.2228   -5.4605 C   0  0  0  0  0  0  0  0  0  0  0  0
   -0.6152   -2.7537   -4.2981 C   0  0  0  0  0  0  0  0  0  0  0  0
    1.8909   -0.3553   -2.8619 N   0  0  0  0  0  0  0  0  0  0  0  0
    2.3741    0.9337   -2.8341 C   0  0  0  0  0  0  0  0  0  0  0  0
    3.6127    1.3903   -2.0958 C   0  0  0  0  0  0  0  0  0  0  0  0
    4.1858    2.7052   -2.6621 C   0  0  0  0  0  0  0  0  0  0  0  0
    5.3510    3.1847   -1.8519 C   0  0  0  0  0  0  0  0  0  0  0  0
    5.0050    3.2154   -0.4169 N   0  0  0  0  0  0  0  0  0  0  0  0
    5.1639    4.2948    0.4029 C   0  0  0  0  0  0  0  0  0  0  0  0
    5.4273    5.5742   -0.0572 C   0  0  0  0  0  0  0  0  0  0  0  0
    5.7138    6.6757   -0.3121 C   0  0  0  0  0  0  0  0  0  0  0  0
    6.0286    7.9575   -0.7618 C   0  0  0  0  0  0  0  0  0  0  0  0
    7.3286    7.9809   -1.3809 N   0  0  0  0  0  0  0  0  0  0  0  0
    7.6714    9.0405   -2.2334 C   0  0  0  0  0  0  0  0  0  0  0  0
    8.4153    7.3865   -0.6736 C   0  0  0  0  0  0  0  0  0  0  0  0
    4.9554    8.3949   -1.7521 C   0  0  0  0  0  0  0  0  0  0  0  0
    6.0072    8.9555    0.3924 C   0  0  0  0  0  0  0  0  0  0  0  0
    5.0141    4.1341    1.6288 O   0  0  0  0  0  0  0  0  0  0  0  0
    4.4489    2.0196    0.1309 C   0  0  0  0  0  0  0  0  0  0  0  0
    3.2431    1.6094   -0.6403 C   0  0  0  0  0  0  0  0  0  0  0  0
    1.7351    1.7945   -3.4689 O   0  0  0  0  0  0  0  0  0  0  0  0
    2.4851   -1.4296   -2.0503 C   0  0  0  0  0  0  0  0  0  0  0  0
   -0.6414   -0.6858   -1.6751 O   0  0  0  0  0  0  0  0  0  0  0  0
   -2.6176    2.5919   -2.7034 C   0  0  0  0  0  0  0  0  0  0  0  0
   -1.4012    3.2385   -1.9802 C   0  0  0  0  0  0  0  0  0  0  0  0
   -1.5523    3.0240   -0.5118 C   0  0  0  0  0  0  0  0  0  0  0  0
   -0.4851    3.6430    0.2427 N   0  0  0  0  0  0  0  0  0  0  0  0
   -0.2707    5.0621   -0.0450 C   0  0  0  0  0  0  0  0  0  0  0  0
   -0.2706    5.3162   -1.5651 C   0  0  0  0  0  0  0  0  0  0  0  0
   -1.4111    4.6692   -2.2384 O   0  0  0  0  0  0  0  0  0  0  0  0
   -3.9323    0.5421   -4.6491 O   0  0  0  0  0  0  0  0  0  0  0  0
   -6.1561   -0.4171   -3.1824 C   0  0  0  0  0  0  0  0  0  0  0  0
   -7.3428    0.2428   -2.4455 C   0  0  0  0  0  0  0  0  0  0  0  0
   -7.1884    0.2135   -0.9189 C   0  0  0  0  0  0  0  0  0  0  0  0
   -6.4296    0.8371    1.8122 O   0  0  0  0  0  0  0  0  0  0  0  0
   -0.1722    1.2272    2.9928 C   0  0  0  0  0  0  0  0  0  0  0  0
    0.7823    1.8080    3.8240 C   0  0  0  0  0  0  0  0  0  0  0  0
    1.3578    3.0776    3.4527 C   0  0  0  0  0  0  0  0  0  0  0  0
    0.9122    3.6654    2.2576 C   0  0  0  0  0  0  0  0  0  0  0  0
   -0.0565    3.0535    1.4442 C   0  0  0  0  0  0  0  0  0  0  0  0
   -0.5967    1.8155    1.8108 C   0  0  0  0  0  0  0  0  0  0  0  0
    4.6275    0.4565   -2.1919 F   0  0  0  0  0  0  0  0  0  0  0  0
  1  2  1  0  0  0  0
  2  3  1  0  0  0  0
  2  5  1  0  0  0  0
  3  4  1  0  0  0  0
  5  6  4  0  0  0  0
  5 10  4  0  0  0  0
  6  7  4  0  0  0  0
  7  8  4  0  0  0  0
  8  9  4  0  0  0  0
  9 10  4  0  0  0  0
 10 11  1  0  0  0  0
 11 12  4  0  0  0  0
 11 15  4  0  0  0  0
 12 13  1  0  0  0  0
 12 68  4  0  0  0  0
 13 14  1  0  0  0  0
 15 16  1  0  0  0  0
 15 67  4  0  0  0  0
 16 17  1  0  0  0  0
 17 18  1  0  0  0  0
 17 19  1  0  0  0  0
 17 20  1  0  0  0  0
 20 21  1  0  0  0  0
 21 22  1  0  0  0  0
 22 23  1  0  0  0  0
 22 66  2  0  0  0  0
 23 24  1  0  0  0  0
 23 65  1  0  0  0  0
 24 25  1  0  0  0  0
 25 26  1  0  0  0  0
 25 63  1  0  0  0  0
 26 27  1  0  0  0  0
 26 62  2  0  0  0  0
 27 28  1  0  0  0  0
 27 55  1  0  0  0  0
 28 29  1  0  0  0  0
 29 30  1  0  0  0  0
 29 54  2  0  0  0  0
 30 31  1  0  0  0  0
 30 34  1  0  0  0  0
 31 32  1  0  0  0  0
 31 33  1  0  0  0  0
 34 35  1  0  0  0  0
 34 53  1  0  0  0  0
 35 36  1  0  0  0  0
 35 52  2  0  0  0  0
 36 37  1  0  0  0  0
 36 51  1  0  0  0  0
 36 73  1  0  0  0  0
 37 38  1  0  0  0  0
 38 39  1  0  0  0  0
 39 40  1  0  0  0  0
 39 50  1  0  0  0  0
 40 41  1  0  0  0  0
 40 49  2  0  0  0  0
 41 42  1  0  0  0  0
 42 43  1  0  0  0  0
 43 44  1  0  0  0  0
 43 47  1  0  0  0  0
 43 48  1  0  0  0  0
 44 45  1  0  0  0  0
 44 46  1  0  0  0  0
 50 51  1  0  0  0  0
 55 56  1  0  0  0  0
 56 57  1  0  0  0  0
 56 61  1  0  0  0  0
 57 58  1  0  0  0  0
 58 59  1  0  0  0  0
 58 71  1  0  0  0  0
 59 60  1  0  0  0  0
 60 61  1  0  0  0  0
 63 64  1  0  0  0  0
 64 65  1  0  0  0  0
 67 68  4  0  0  0  0
 67 72  4  0  0  0  0
 68 69  4  0  0  0  0
 69 70  4  0  0  0  0
 70 71  4  0  0  0  0
 71 72  4  0  0  0  0
M  END
$$$$
