mol_ETKDG4_235
  PyMOL3.1          3D                             0

 73 79  0  0  0  0  0  0  0  0999 V2000
   -2.8853   -4.8160   -1.3010 C   0  0  0  0  0  0  0  0  0  0  0  0
   -2.6827   -3.9248   -0.1331 C   0  0  0  0  0  0  0  0  0  0  0  0
   -2.4805   -4.5802    1.1025 O   0  0  0  0  0  0  0  0  0  0  0  0
   -1.2437   -5.2408    1.2727 C   0  0  0  0  0  0  0  0  0  0  0  0
   -3.8082   -2.9915    0.0490 C   0  0  0  0  0  0  0  0  0  0  0  0
   -4.9487   -3.4824    0.4973 N   0  0  0  0  0  0  0  0  0  0  0  0
   -6.0380   -2.7007    0.6288 C   0  0  0  0  0  0  0  0  0  0  0  0
   -6.0128   -1.3451    0.2940 C   0  0  0  0  0  0  0  0  0  0  0  0
   -4.8169   -0.8050   -0.1949 C   0  0  0  0  0  0  0  0  0  0  0  0
   -3.7002   -1.6440   -0.2888 C   0  0  0  0  0  0  0  0  0  0  0  0
   -2.4481   -1.0774   -0.7415 C   0  0  0  0  0  0  0  0  0  0  0  0
   -2.1342   -0.8791   -2.0469 N   0  0  0  0  0  0  0  0  0  0  0  0
   -2.9729   -1.2031   -3.2462 C   0  0  0  0  0  0  0  0  0  0  0  0
   -3.6490   -0.0211   -3.7986 C   0  0  0  0  0  0  0  0  0  0  0  0
   -1.3534   -0.7274    0.0917 C   0  0  0  0  0  0  0  0  0  0  0  0
   -1.1658   -0.8637    1.5853 C   0  0  0  0  0  0  0  0  0  0  0  0
   -1.5940    0.3999    2.4625 C   0  0  0  0  0  0  0  0  0  0  0  0
   -3.0028    0.8571    2.1867 C   0  0  0  0  0  0  0  0  0  0  0  0
   -1.5788   -0.0238    3.9092 C   0  0  0  0  0  0  0  0  0  0  0  0
   -0.6590    1.5857    2.2363 C   0  0  0  0  0  0  0  0  0  0  0  0
    0.6789    1.4526    2.9360 O   0  0  0  0  0  0  0  0  0  0  0  0
    1.2461    2.4363    3.8035 C   0  0  0  0  0  0  0  0  0  0  0  0
    2.6284    2.1943    4.3992 C   0  0  0  0  0  0  0  0  0  0  0  0
    3.0013    0.8233    4.2309 N   0  0  0  0  0  0  0  0  0  0  0  0
    4.2296    0.4273    4.7478 N   0  0  0  0  0  0  0  0  0  0  0  0
    5.1564   -0.1841    3.9506 C   0  0  0  0  0  0  0  0  0  0  0  0
    4.8010   -0.4498    2.5212 C   0  0  0  0  0  0  0  0  0  0  0  0
    5.3171   -1.7283    2.0778 N   0  0  0  0  0  0  0  0  0  0  0  0
    4.5510   -2.8240    1.9958 C   0  0  0  0  0  0  0  0  0  0  0  0
    5.1767   -4.0443    1.3997 C   0  0  0  0  0  0  0  0  0  0  0  0
    5.7152   -5.0813    2.4331 C   0  0  0  0  0  0  0  0  0  0  0  0
    6.6075   -6.1082    1.8131 C   0  0  0  0  0  0  0  0  0  0  0  0
    6.2710   -4.4795    3.6768 C   0  0  0  0  0  0  0  0  0  0  0  0
    4.1562   -4.6343    0.5353 N   0  0  0  0  0  0  0  0  0  0  0  0
    4.0265   -4.1405   -0.7350 C   0  0  0  0  0  0  0  0  0  0  0  0
    2.9944   -4.6065   -1.7243 C   0  0  0  0  0  0  0  0  0  0  0  0
    3.4705   -4.5424   -3.1688 C   0  0  0  0  0  0  0  0  0  0  0  0
    2.3689   -4.9765   -4.0718 C   0  0  0  0  0  0  0  0  0  0  0  0
    1.1380   -4.2098   -3.7960 N   0  0  0  0  0  0  0  0  0  0  0  0
    0.4444   -3.5788   -4.7753 C   0  0  0  0  0  0  0  0  0  0  0  0
    1.0198   -3.4156   -6.0020 C   0  0  0  0  0  0  0  0  0  0  0  0
    1.4198   -3.2319   -7.0437 C   0  0  0  0  0  0  0  0  0  0  0  0
    2.1161   -3.0177   -8.2504 C   0  0  0  0  0  0  0  0  0  0  0  0
    1.9607   -1.6589   -8.6342 N   0  0  0  0  0  0  0  0  0  0  0  0
    0.7481   -1.2392   -9.2131 C   0  0  0  0  0  0  0  0  0  0  0  0
    2.7586   -0.6678   -8.0132 C   0  0  0  0  0  0  0  0  0  0  0  0
    1.5922   -3.9625   -9.3195 C   0  0  0  0  0  0  0  0  0  0  0  0
    3.5879   -3.3551   -8.0711 C   0  0  0  0  0  0  0  0  0  0  0  0
   -0.6879   -3.1269   -4.5604 O   0  0  0  0  0  0  0  0  0  0  0  0
    0.6860   -4.1397   -2.4389 C   0  0  0  0  0  0  0  0  0  0  0  0
    1.7774   -3.7082   -1.5399 C   0  0  0  0  0  0  0  0  0  0  0  0
    4.7973   -3.2252   -1.0808 O   0  0  0  0  0  0  0  0  0  0  0  0
    3.2402   -5.6373    1.1016 C   0  0  0  0  0  0  0  0  0  0  0  0
    3.3651   -2.7653    2.2929 O   0  0  0  0  0  0  0  0  0  0  0  0
    5.3557    0.6957    1.5849 C   0  0  0  0  0  0  0  0  0  0  0  0
    4.9440    0.5522    0.0874 C   0  0  0  0  0  0  0  0  0  0  0  0
    3.5074    0.9291   -0.0076 C   0  0  0  0  0  0  0  0  0  0  0  0
    3.0313    0.9064   -1.3741 N   0  0  0  0  0  0  0  0  0  0  0  0
    3.8192    1.6911   -2.3201 C   0  0  0  0  0  0  0  0  0  0  0  0
    5.3254    1.4258   -2.1202 C   0  0  0  0  0  0  0  0  0  0  0  0
    5.7190    1.4966   -0.7046 O   0  0  0  0  0  0  0  0  0  0  0  0
    6.2830   -0.4954    4.3739 O   0  0  0  0  0  0  0  0  0  0  0  0
    4.4231    0.6501    6.1813 C   0  0  0  0  0  0  0  0  0  0  0  0
    4.0526    2.1093    6.5202 C   0  0  0  0  0  0  0  0  0  0  0  0
    2.6925    2.5242    5.9243 C   0  0  0  0  0  0  0  0  0  0  0  0
    0.6810    3.5033    4.0946 O   0  0  0  0  0  0  0  0  0  0  0  0
   -0.3804   -0.2710   -0.8147 C   0  0  0  0  0  0  0  0  0  0  0  0
   -0.8943   -0.3727   -2.1042 C   0  0  0  0  0  0  0  0  0  0  0  0
   -0.0735   -0.0049   -3.2224 C   0  0  0  0  0  0  0  0  0  0  0  0
    1.2261    0.4235   -2.9433 C   0  0  0  0  0  0  0  0  0  0  0  0
    1.7195    0.5063   -1.6333 C   0  0  0  0  0  0  0  0  0  0  0  0
    0.9080    0.1573   -0.5546 C   0  0  0  0  0  0  0  0  0  0  0  0
    2.6450   -5.9162   -1.5235 F   0  0  0  0  0  0  0  0  0  0  0  0
  1  2  1  0  0  0  0
  2  3  1  0  0  0  0
  2  5  1  0  0  0  0
  3  4  1  0  0  0  0
  5  6  4  0  0  0  0
  5 10  4  0  0  0  0
  6  7  4  0  0  0  0
  7  8  4  0  0  0  0
  8  9  4  0  0  0  0
  9 10  4  0  0  0  0
 10 11  1  0  0  0  0
 11 12  4  0  0  0  0
 11 15  4  0  0  0  0
 12 13  1  0  0  0  0
 12 68  4  0  0  0  0
 13 14  1  0  0  0  0
 15 16  1  0  0  0  0
 15 67  4  0  0  0  0
 16 17  1  0  0  0  0
 17 18  1  0  0  0  0
 17 19  1  0  0  0  0
 17 20  1  0  0  0  0
 20 21  1  0  0  0  0
 21 22  1  0  0  0  0
 22 23  1  0  0  0  0
 22 66  2  0  0  0  0
 23 24  1  0  0  0  0
 23 65  1  0  0  0  0
 24 25  1  0  0  0  0
 25 26  1  0  0  0  0
 25 63  1  0  0  0  0
 26 27  1  0  0  0  0
 26 62  2  0  0  0  0
 27 28  1  0  0  0  0
 27 55  1  0  0  0  0
 28 29  1  0  0  0  0
 29 30  1  0  0  0  0
 29 54  2  0  0  0  0
 30 31  1  0  0  0  0
 30 34  1  0  0  0  0
 31 32  1  0  0  0  0
 31 33  1  0  0  0  0
 34 35  1  0  0  0  0
 34 53  1  0  0  0  0
 35 36  1  0  0  0  0
 35 52  2  0  0  0  0
 36 37  1  0  0  0  0
 36 51  1  0  0  0  0
 36 73  1  0  0  0  0
 37 38  1  0  0  0  0
 38 39  1  0  0  0  0
 39 40  1  0  0  0  0
 39 50  1  0  0  0  0
 40 41  1  0  0  0  0
 40 49  2  0  0  0  0
 41 42  1  0  0  0  0
 42 43  1  0  0  0  0
 43 44  1  0  0  0  0
 43 47  1  0  0  0  0
 43 48  1  0  0  0  0
 44 45  1  0  0  0  0
 44 46  1  0  0  0  0
 50 51  1  0  0  0  0
 55 56  1  0  0  0  0
 56 57  1  0  0  0  0
 56 61  1  0  0  0  0
 57 58  1  0  0  0  0
 58 59  1  0  0  0  0
 58 71  1  0  0  0  0
 59 60  1  0  0  0  0
 60 61  1  0  0  0  0
 63 64  1  0  0  0  0
 64 65  1  0  0  0  0
 67 68  4  0  0  0  0
 67 72  4  0  0  0  0
 68 69  4  0  0  0  0
 69 70  4  0  0  0  0
 70 71  4  0  0  0  0
 71 72  4  0  0  0  0
M  END
$$$$
