mol_ETKDG0_305
  PyMOL3.1          3D                             0

 73 79  0  0  0  0  0  0  0  0999 V2000
   -1.2024    7.1907    1.9635 C   0  0  0  0  0  0  0  0  0  0  0  0
   -1.8866    5.9727    1.4810 C   0  0  0  0  0  0  0  0  0  0  0  0
   -2.2286    5.9861    0.1046 O   0  0  0  0  0  0  0  0  0  0  0  0
   -1.1899    5.7291   -0.8093 C   0  0  0  0  0  0  0  0  0  0  0  0
   -3.1284    5.6850    2.2243 C   0  0  0  0  0  0  0  0  0  0  0  0
   -4.1754    6.4507    1.9856 N   0  0  0  0  0  0  0  0  0  0  0  0
   -5.3312    6.2856    2.6579 C   0  0  0  0  0  0  0  0  0  0  0  0
   -5.4727    5.3032    3.6435 C   0  0  0  0  0  0  0  0  0  0  0  0
   -4.3737    4.4875    3.9228 C   0  0  0  0  0  0  0  0  0  0  0  0
   -3.2038    4.6755    3.1850 C   0  0  0  0  0  0  0  0  0  0  0  0
   -2.1043    3.7891    3.4404 C   0  0  0  0  0  0  0  0  0  0  0  0
   -1.2031    3.9753    4.4319 N   0  0  0  0  0  0  0  0  0  0  0  0
   -1.1328    5.1121    5.4079 C   0  0  0  0  0  0  0  0  0  0  0  0
   -1.6252    4.7546    6.7370 C   0  0  0  0  0  0  0  0  0  0  0  0
   -1.7628    2.6556    2.6593 C   0  0  0  0  0  0  0  0  0  0  0  0
   -2.3610    2.0996    1.4024 C   0  0  0  0  0  0  0  0  0  0  0  0
   -3.5494    1.0740    1.5542 C   0  0  0  0  0  0  0  0  0  0  0  0
   -4.8307    1.7265    2.0251 C   0  0  0  0  0  0  0  0  0  0  0  0
   -3.8635    0.5851    0.1728 C   0  0  0  0  0  0  0  0  0  0  0  0
   -3.2185   -0.1045    2.4749 C   0  0  0  0  0  0  0  0  0  0  0  0
   -2.5851   -1.2591    1.7561 O   0  0  0  0  0  0  0  0  0  0  0  0
   -3.0112   -2.6091    1.8334 C   0  0  0  0  0  0  0  0  0  0  0  0
   -2.2816   -3.6391    0.9826 C   0  0  0  0  0  0  0  0  0  0  0  0
   -1.5980   -2.9723   -0.0746 N   0  0  0  0  0  0  0  0  0  0  0  0
   -0.9103   -3.7383   -0.9965 N   0  0  0  0  0  0  0  0  0  0  0  0
    0.4019   -3.4943   -1.2611 C   0  0  0  0  0  0  0  0  0  0  0  0
    1.0814   -2.3921   -0.5118 C   0  0  0  0  0  0  0  0  0  0  0  0
    1.9924   -1.6547   -1.3504 N   0  0  0  0  0  0  0  0  0  0  0  0
    1.7088   -0.4527   -1.8535 C   0  0  0  0  0  0  0  0  0  0  0  0
    2.8288    0.2390   -2.5334 C   0  0  0  0  0  0  0  0  0  0  0  0
    2.8513    0.1555   -4.0729 C   0  0  0  0  0  0  0  0  0  0  0  0
    2.0142   -0.8822   -4.6757 C   0  0  0  0  0  0  0  0  0  0  0  0
    4.2383    0.2579   -4.6237 C   0  0  0  0  0  0  0  0  0  0  0  0
    2.8376    1.6147   -2.0496 N   0  0  0  0  0  0  0  0  0  0  0  0
    3.4402    1.8734   -0.8511 C   0  0  0  0  0  0  0  0  0  0  0  0
    3.4795    3.2228   -0.1891 C   0  0  0  0  0  0  0  0  0  0  0  0
    4.6013    3.3493    0.8401 C   0  0  0  0  0  0  0  0  0  0  0  0
    4.5230    4.6586    1.5322 C   0  0  0  0  0  0  0  0  0  0  0  0
    3.1663    4.9059    2.0560 N   0  0  0  0  0  0  0  0  0  0  0  0
    2.9084    5.2848    3.3353 C   0  0  0  0  0  0  0  0  0  0  0  0
    3.8846    5.2656    4.2954 C   0  0  0  0  0  0  0  0  0  0  0  0
    4.6322    5.3733    5.1532 C   0  0  0  0  0  0  0  0  0  0  0  0
    5.6625    5.4491    6.0920 C   0  0  0  0  0  0  0  0  0  0  0  0
    5.8765    6.8126    6.4317 N   0  0  0  0  0  0  0  0  0  0  0  0
    7.1439    7.4030    6.4040 C   0  0  0  0  0  0  0  0  0  0  0  0
    4.8192    7.5742    6.9922 C   0  0  0  0  0  0  0  0  0  0  0  0
    6.9017    4.8070    5.4874 C   0  0  0  0  0  0  0  0  0  0  0  0
    5.3283    4.6636    7.3495 C   0  0  0  0  0  0  0  0  0  0  0  0
    1.7583    5.6256    3.6589 O   0  0  0  0  0  0  0  0  0  0  0  0
    2.0786    4.7272    1.1545 C   0  0  0  0  0  0  0  0  0  0  0  0
    2.1431    3.4089    0.5019 C   0  0  0  0  0  0  0  0  0  0  0  0
    3.9658    0.9191   -0.2535 O   0  0  0  0  0  0  0  0  0  0  0  0
    2.0963    2.6367   -2.8161 C   0  0  0  0  0  0  0  0  0  0  0  0
    0.6309    0.0811   -1.6413 O   0  0  0  0  0  0  0  0  0  0  0  0
    1.8736   -2.9730    0.7204 C   0  0  0  0  0  0  0  0  0  0  0  0
    2.5667   -1.8906    1.5832 C   0  0  0  0  0  0  0  0  0  0  0  0
    1.5375   -1.2747    2.4383 C   0  0  0  0  0  0  0  0  0  0  0  0
    2.0934   -0.2833    3.3128 N   0  0  0  0  0  0  0  0  0  0  0  0
    3.2447   -0.7234    4.1090 C   0  0  0  0  0  0  0  0  0  0  0  0
    4.2474   -1.4966    3.2410 C   0  0  0  0  0  0  0  0  0  0  0  0
    3.5807   -2.5083    2.4112 O   0  0  0  0  0  0  0  0  0  0  0  0
    1.0432   -4.1715   -2.0772 O   0  0  0  0  0  0  0  0  0  0  0  0
   -1.6960   -4.7503   -1.7002 C   0  0  0  0  0  0  0  0  0  0  0  0
   -2.4901   -5.5758   -0.6672 C   0  0  0  0  0  0  0  0  0  0  0  0
   -3.2362   -4.6897    0.3401 C   0  0  0  0  0  0  0  0  0  0  0  0
   -3.9309   -3.0083    2.5682 O   0  0  0  0  0  0  0  0  0  0  0  0
   -0.6151    2.1563    3.2876 C   0  0  0  0  0  0  0  0  0  0  0  0
   -0.3065    2.9830    4.3636 C   0  0  0  0  0  0  0  0  0  0  0  0
    0.8511    2.6958    5.1550 C   0  0  0  0  0  0  0  0  0  0  0  0
    1.6329    1.6061    4.7669 C   0  0  0  0  0  0  0  0  0  0  0  0
    1.2996    0.8001    3.6789 C   0  0  0  0  0  0  0  0  0  0  0  0
    0.1614    1.0763    2.9204 C   0  0  0  0  0  0  0  0  0  0  0  0
    3.6925    4.2292   -1.1084 F   0  0  0  0  0  0  0  0  0  0  0  0
  1  2  1  0  0  0  0
  2  3  1  0  0  0  0
  2  5  1  0  0  0  0
  3  4  1  0  0  0  0
  5  6  4  0  0  0  0
  5 10  4  0  0  0  0
  6  7  4  0  0  0  0
  7  8  4  0  0  0  0
  8  9  4  0  0  0  0
  9 10  4  0  0  0  0
 10 11  1  0  0  0  0
 11 12  4  0  0  0  0
 11 15  4  0  0  0  0
 12 13  1  0  0  0  0
 12 68  4  0  0  0  0
 13 14  1  0  0  0  0
 15 16  1  0  0  0  0
 15 67  4  0  0  0  0
 16 17  1  0  0  0  0
 17 18  1  0  0  0  0
 17 19  1  0  0  0  0
 17 20  1  0  0  0  0
 20 21  1  0  0  0  0
 21 22  1  0  0  0  0
 22 23  1  0  0  0  0
 22 66  2  0  0  0  0
 23 24  1  0  0  0  0
 23 65  1  0  0  0  0
 24 25  1  0  0  0  0
 25 26  1  0  0  0  0
 25 63  1  0  0  0  0
 26 27  1  0  0  0  0
 26 62  2  0  0  0  0
 27 28  1  0  0  0  0
 27 55  1  0  0  0  0
 28 29  1  0  0  0  0
 29 30  1  0  0  0  0
 29 54  2  0  0  0  0
 30 31  1  0  0  0  0
 30 34  1  0  0  0  0
 31 32  1  0  0  0  0
 31 33  1  0  0  0  0
 34 35  1  0  0  0  0
 34 53  1  0  0  0  0
 35 36  1  0  0  0  0
 35 52  2  0  0  0  0
 36 37  1  0  0  0  0
 36 51  1  0  0  0  0
 36 73  1  0  0  0  0
 37 38  1  0  0  0  0
 38 39  1  0  0  0  0
 39 40  1  0  0  0  0
 39 50  1  0  0  0  0
 40 41  1  0  0  0  0
 40 49  2  0  0  0  0
 41 42  1  0  0  0  0
 42 43  1  0  0  0  0
 43 44  1  0  0  0  0
 43 47  1  0  0  0  0
 43 48  1  0  0  0  0
 44 45  1  0  0  0  0
 44 46  1  0  0  0  0
 50 51  1  0  0  0  0
 55 56  1  0  0  0  0
 56 57  1  0  0  0  0
 56 61  1  0  0  0  0
 57 58  1  0  0  0  0
 58 59  1  0  0  0  0
 58 71  1  0  0  0  0
 59 60  1  0  0  0  0
 60 61  1  0  0  0  0
 63 64  1  0  0  0  0
 64 65  1  0  0  0  0
 67 68  4  0  0  0  0
 67 72  4  0  0  0  0
 68 69  4  0  0  0  0
 69 70  4  0  0  0  0
 70 71  4  0  0  0  0
 71 72  4  0  0  0  0
M  END
$$$$
