mol_ETKDG5_292
  PyMOL3.1          3D                             0

 73 79  0  0  0  0  0  0  0  0999 V2000
   -1.8837    5.2557    5.6064 C   0  0  0  0  0  0  0  0  0  0  0  0
   -2.1951    3.8123    5.5893 C   0  0  0  0  0  0  0  0  0  0  0  0
   -3.5584    3.4716    5.7055 O   0  0  0  0  0  0  0  0  0  0  0  0
   -4.3679    3.7002    4.5680 C   0  0  0  0  0  0  0  0  0  0  0  0
   -1.4645    3.0450    6.6125 C   0  0  0  0  0  0  0  0  0  0  0  0
   -1.8637    3.1343    7.8740 N   0  0  0  0  0  0  0  0  0  0  0  0
   -1.1964    2.4997    8.8675 C   0  0  0  0  0  0  0  0  0  0  0  0
   -0.0540    1.7361    8.6110 C   0  0  0  0  0  0  0  0  0  0  0  0
    0.3855    1.6396    7.2826 C   0  0  0  0  0  0  0  0  0  0  0  0
   -0.3549    2.2877    6.2818 C   0  0  0  0  0  0  0  0  0  0  0  0
    0.0958    2.1552    4.9204 C   0  0  0  0  0  0  0  0  0  0  0  0
    1.0870    2.9202    4.3973 N   0  0  0  0  0  0  0  0  0  0  0  0
    1.8402    4.0463    5.0617 C   0  0  0  0  0  0  0  0  0  0  0  0
    3.1944    3.6788    5.4695 C   0  0  0  0  0  0  0  0  0  0  0  0
   -0.4604    1.2970    3.9306 C   0  0  0  0  0  0  0  0  0  0  0  0
   -1.6434    0.3673    3.9545 C   0  0  0  0  0  0  0  0  0  0  0  0
   -1.3504   -1.1089    4.4689 C   0  0  0  0  0  0  0  0  0  0  0  0
   -2.6108   -1.9130    4.2494 C   0  0  0  0  0  0  0  0  0  0  0  0
   -1.1273   -1.1312    5.9484 C   0  0  0  0  0  0  0  0  0  0  0  0
   -0.1821   -1.7731    3.7719 C   0  0  0  0  0  0  0  0  0  0  0  0
   -0.4672   -2.6545    2.5909 O   0  0  0  0  0  0  0  0  0  0  0  0
    0.1628   -3.9170    2.3667 C   0  0  0  0  0  0  0  0  0  0  0  0
   -0.1528   -4.6545    1.0742 C   0  0  0  0  0  0  0  0  0  0  0  0
   -1.3741   -4.1557    0.5056 N   0  0  0  0  0  0  0  0  0  0  0  0
   -1.8308   -4.7467   -0.6737 N   0  0  0  0  0  0  0  0  0  0  0  0
   -2.0928   -3.9907   -1.7863 C   0  0  0  0  0  0  0  0  0  0  0  0
   -1.8300   -2.5156   -1.7278 C   0  0  0  0  0  0  0  0  0  0  0  0
   -2.7789   -1.7534   -2.5137 N   0  0  0  0  0  0  0  0  0  0  0  0
   -3.7347   -0.9829   -1.9796 C   0  0  0  0  0  0  0  0  0  0  0  0
   -4.4834   -0.1008   -2.9252 C   0  0  0  0  0  0  0  0  0  0  0  0
   -5.8542   -0.6413   -3.4196 C   0  0  0  0  0  0  0  0  0  0  0  0
   -6.1411   -2.0511   -3.1439 C   0  0  0  0  0  0  0  0  0  0  0  0
   -6.1658   -0.1932   -4.8239 C   0  0  0  0  0  0  0  0  0  0  0  0
   -4.6013    1.2021   -2.2650 N   0  0  0  0  0  0  0  0  0  0  0  0
   -3.5178    2.0560   -2.3163 C   0  0  0  0  0  0  0  0  0  0  0  0
   -3.4196    3.3821   -1.5998 C   0  0  0  0  0  0  0  0  0  0  0  0
   -2.2551    4.2368   -2.1350 C   0  0  0  0  0  0  0  0  0  0  0  0
   -2.0557    5.4671   -1.2968 C   0  0  0  0  0  0  0  0  0  0  0  0
   -1.9294    5.0988    0.1278 N   0  0  0  0  0  0  0  0  0  0  0  0
   -0.8563    5.4434    0.9164 C   0  0  0  0  0  0  0  0  0  0  0  0
    0.3524    5.8464    0.3753 C   0  0  0  0  0  0  0  0  0  0  0  0
    1.3806    6.2405    0.0148 C   0  0  0  0  0  0  0  0  0  0  0  0
    2.5649    6.6988   -0.5988 C   0  0  0  0  0  0  0  0  0  0  0  0
    2.4110    8.0827   -0.9039 N   0  0  0  0  0  0  0  0  0  0  0  0
    2.5209    9.0319    0.1282 C   0  0  0  0  0  0  0  0  0  0  0  0
    1.9854    8.5234   -2.1659 C   0  0  0  0  0  0  0  0  0  0  0  0
    2.8320    5.8736   -1.8418 C   0  0  0  0  0  0  0  0  0  0  0  0
    3.7731    6.5105    0.3005 C   0  0  0  0  0  0  0  0  0  0  0  0
   -0.9367    5.3421    2.1573 O   0  0  0  0  0  0  0  0  0  0  0  0
   -2.9988    4.3074    0.6739 C   0  0  0  0  0  0  0  0  0  0  0  0
   -3.1571    3.0508   -0.1368 C   0  0  0  0  0  0  0  0  0  0  0  0
   -2.5361    1.6790   -2.9850 O   0  0  0  0  0  0  0  0  0  0  0  0
   -5.8085    1.5008   -1.4723 C   0  0  0  0  0  0  0  0  0  0  0  0
   -3.8652   -0.9132   -0.7672 O   0  0  0  0  0  0  0  0  0  0  0  0
   -0.3784   -2.2301   -2.2888 C   0  0  0  0  0  0  0  0  0  0  0  0
    0.0483   -0.7392   -2.2376 C   0  0  0  0  0  0  0  0  0  0  0  0
    0.5412   -0.4649   -0.8594 C   0  0  0  0  0  0  0  0  0  0  0  0
    1.0594    0.8812   -0.7366 N   0  0  0  0  0  0  0  0  0  0  0  0
    2.0833    1.2269   -1.7510 C   0  0  0  0  0  0  0  0  0  0  0  0
    1.6002    0.8430   -3.1588 C   0  0  0  0  0  0  0  0  0  0  0  0
    1.1259   -0.5487   -3.1903 O   0  0  0  0  0  0  0  0  0  0  0  0
   -2.4788   -4.5066   -2.8506 O   0  0  0  0  0  0  0  0  0  0  0  0
   -2.0588   -6.1904   -0.6085 C   0  0  0  0  0  0  0  0  0  0  0  0
   -0.7883   -6.8669   -0.0328 C   0  0  0  0  0  0  0  0  0  0  0  0
   -0.2950   -6.1944    1.2577 C   0  0  0  0  0  0  0  0  0  0  0  0
    0.9623   -4.4636    3.1543 O   0  0  0  0  0  0  0  0  0  0  0  0
    0.3269    1.5530    2.8017 C   0  0  0  0  0  0  0  0  0  0  0  0
    1.2507    2.5494    3.1260 C   0  0  0  0  0  0  0  0  0  0  0  0
    2.1602    3.0129    2.1219 C   0  0  0  0  0  0  0  0  0  0  0  0
    2.0636    2.4325    0.8505 C   0  0  0  0  0  0  0  0  0  0  0  0
    1.1235    1.4399    0.5510 C   0  0  0  0  0  0  0  0  0  0  0  0
    0.2212    1.0043    1.5308 C   0  0  0  0  0  0  0  0  0  0  0  0
   -4.5724    4.1296   -1.7509 F   0  0  0  0  0  0  0  0  0  0  0  0
  1  2  1  0  0  0  0
  2  3  1  0  0  0  0
  2  5  1  0  0  0  0
  3  4  1  0  0  0  0
  5  6  4  0  0  0  0
  5 10  4  0  0  0  0
  6  7  4  0  0  0  0
  7  8  4  0  0  0  0
  8  9  4  0  0  0  0
  9 10  4  0  0  0  0
 10 11  1  0  0  0  0
 11 12  4  0  0  0  0
 11 15  4  0  0  0  0
 12 13  1  0  0  0  0
 12 68  4  0  0  0  0
 13 14  1  0  0  0  0
 15 16  1  0  0  0  0
 15 67  4  0  0  0  0
 16 17  1  0  0  0  0
 17 18  1  0  0  0  0
 17 19  1  0  0  0  0
 17 20  1  0  0  0  0
 20 21  1  0  0  0  0
 21 22  1  0  0  0  0
 22 23  1  0  0  0  0
 22 66  2  0  0  0  0
 23 24  1  0  0  0  0
 23 65  1  0  0  0  0
 24 25  1  0  0  0  0
 25 26  1  0  0  0  0
 25 63  1  0  0  0  0
 26 27  1  0  0  0  0
 26 62  2  0  0  0  0
 27 28  1  0  0  0  0
 27 55  1  0  0  0  0
 28 29  1  0  0  0  0
 29 30  1  0  0  0  0
 29 54  2  0  0  0  0
 30 31  1  0  0  0  0
 30 34  1  0  0  0  0
 31 32  1  0  0  0  0
 31 33  1  0  0  0  0
 34 35  1  0  0  0  0
 34 53  1  0  0  0  0
 35 36  1  0  0  0  0
 35 52  2  0  0  0  0
 36 37  1  0  0  0  0
 36 51  1  0  0  0  0
 36 73  1  0  0  0  0
 37 38  1  0  0  0  0
 38 39  1  0  0  0  0
 39 40  1  0  0  0  0
 39 50  1  0  0  0  0
 40 41  1  0  0  0  0
 40 49  2  0  0  0  0
 41 42  1  0  0  0  0
 42 43  1  0  0  0  0
 43 44  1  0  0  0  0
 43 47  1  0  0  0  0
 43 48  1  0  0  0  0
 44 45  1  0  0  0  0
 44 46  1  0  0  0  0
 50 51  1  0  0  0  0
 55 56  1  0  0  0  0
 56 57  1  0  0  0  0
 56 61  1  0  0  0  0
 57 58  1  0  0  0  0
 58 59  1  0  0  0  0
 58 71  1  0  0  0  0
 59 60  1  0  0  0  0
 60 61  1  0  0  0  0
 63 64  1  0  0  0  0
 64 65  1  0  0  0  0
 67 68  4  0  0  0  0
 67 72  4  0  0  0  0
 68 69  4  0  0  0  0
 69 70  4  0  0  0  0
 70 71  4  0  0  0  0
 71 72  4  0  0  0  0
M  END
$$$$
