mol_bioactive_43
  PyMOL3.1          3D                             0

 73 79  0  0  0  0  0  0  0  0999 V2000
    0.0652    1.3664   -9.3838 C   0  0  0  0  0  0  0  0  0  0  0  0
   -0.4858    1.6663   -8.0245 C   0  0  0  0  0  0  0  0  0  0  0  0
   -1.8651    1.9725   -8.0277 O   0  0  0  0  0  0  0  0  0  0  0  0
   -2.7646    0.9415   -8.4164 C   0  0  0  0  0  0  0  0  0  0  0  0
    0.2317    2.7917   -7.3383 C   0  0  0  0  0  0  0  0  0  0  0  0
    0.1038    3.9971   -7.8638 N   0  0  0  0  0  0  0  0  0  0  0  0
    0.7573    5.0645   -7.3432 C   0  0  0  0  0  0  0  0  0  0  0  0
    1.6074    4.9431   -6.2396 C   0  0  0  0  0  0  0  0  0  0  0  0
    1.7549    3.6787   -5.6686 C   0  0  0  0  0  0  0  0  0  0  0  0
    1.0466    2.6015   -6.2179 C   0  0  0  0  0  0  0  0  0  0  0  0
    1.1792    1.3017   -5.6038 C   0  0  0  0  0  0  0  0  0  0  0  0
    1.9311    0.2961   -6.1192 N   0  0  0  0  0  0  0  0  0  0  0  0
    2.7902    0.3142   -7.3616 C   0  0  0  0  0  0  0  0  0  0  0  0
    4.2280    0.5318   -7.0629 C   0  0  0  0  0  0  0  0  0  0  0  0
    0.5476    0.8783   -4.3955 C   0  0  0  0  0  0  0  0  0  0  0  0
   -0.3007    1.5843   -3.3998 C   0  0  0  0  0  0  0  0  0  0  0  0
   -1.8337    1.7268   -3.6979 C   0  0  0  0  0  0  0  0  0  0  0  0
   -2.0848    2.9421   -4.5864 C   0  0  0  0  0  0  0  0  0  0  0  0
   -2.4871    2.0380   -2.3879 C   0  0  0  0  0  0  0  0  0  0  0  0
   -2.5119    0.5092   -4.3217 C   0  0  0  0  0  0  0  0  0  0  0  0
   -3.2130   -0.4420   -3.3960 O   0  0  0  0  0  0  0  0  0  0  0  0
   -4.2595   -1.3393   -3.7713 C   0  0  0  0  0  0  0  0  0  0  0  0
   -4.8480   -2.2539   -2.7008 C   0  0  0  0  0  0  0  0  0  0  0  0
   -4.4841   -1.7805   -1.4052 N   0  0  0  0  0  0  0  0  0  0  0  0
   -4.9667   -2.4313   -0.2763 N   0  0  0  0  0  0  0  0  0  0  0  0
   -4.1112   -2.8923    0.6953 C   0  0  0  0  0  0  0  0  0  0  0  0
   -2.6242   -2.8103    0.4630 C   0  0  0  0  0  0  0  0  0  0  0  0
   -1.9313   -2.4296    1.6844 N   0  0  0  0  0  0  0  0  0  0  0  0
   -1.4328   -1.2183    1.9741 C   0  0  0  0  0  0  0  0  0  0  0  0
   -0.6413   -1.1157    3.2408 C   0  0  0  0  0  0  0  0  0  0  0  0
   -1.3738   -0.5156    4.4418 C   0  0  0  0  0  0  0  0  0  0  0  0
   -1.3740   -1.3324    5.6762 C   0  0  0  0  0  0  0  0  0  0  0  0
   -2.5508    0.3369    4.1959 C   0  0  0  0  0  0  0  0  0  0  0  0
    0.6273   -0.4509    2.9278 N   0  0  0  0  0  0  0  0  0  0  0  0
    1.6052   -1.2011    2.3144 C   0  0  0  0  0  0  0  0  0  0  0  0
    2.9132   -0.6567    1.7776 C   0  0  0  0  0  0  0  0  0  0  0  0
    2.5666    0.1538    0.5478 C   0  0  0  0  0  0  0  0  0  0  0  0
    3.7975    0.6884   -0.1359 C   0  0  0  0  0  0  0  0  0  0  0  0
    4.6400   -0.4519   -0.5011 N   0  0  0  0  0  0  0  0  0  0  0  0
    4.9728   -0.6851   -1.8304 C   0  0  0  0  0  0  0  0  0  0  0  0
    5.3581   -1.9312   -2.2958 C   0  0  0  0  0  0  0  0  0  0  0  0
    5.7324   -2.9044   -2.8055 C   0  0  0  0  0  0  0  0  0  0  0  0
    6.1734   -4.1853   -3.1967 C   0  0  0  0  0  0  0  0  0  0  0  0
    7.5766   -4.2628   -3.4193 N   0  0  0  0  0  0  0  0  0  0  0  0
    8.1631   -5.4127   -3.9789 C   0  0  0  0  0  0  0  0  0  0  0  0
    8.4536   -3.2699   -2.9798 C   0  0  0  0  0  0  0  0  0  0  0  0
    5.4417   -4.5958   -4.4673 C   0  0  0  0  0  0  0  0  0  0  0  0
    5.7877   -5.1812   -2.1063 C   0  0  0  0  0  0  0  0  0  0  0  0
    4.8689    0.2065   -2.6713 O   0  0  0  0  0  0  0  0  0  0  0  0
    5.0344   -1.3025    0.5900 C   0  0  0  0  0  0  0  0  0  0  0  0
    3.8604   -1.8031    1.3557 C   0  0  0  0  0  0  0  0  0  0  0  0
    1.3705   -2.4109    2.1620 O   0  0  0  0  0  0  0  0  0  0  0  0
    0.7721    0.9994    3.1493 C   0  0  0  0  0  0  0  0  0  0  0  0
   -1.5052   -0.3029    1.1648 O   0  0  0  0  0  0  0  0  0  0  0  0
   -2.1538   -4.2330   -0.0443 C   0  0  0  0  0  0  0  0  0  0  0  0
   -0.8801   -4.5426   -0.8719 C   0  0  0  0  0  0  0  0  0  0  0  0
   -0.3909   -3.3861   -1.6081 C   0  0  0  0  0  0  0  0  0  0  0  0
    0.8711   -3.5366   -2.2623 N   0  0  0  0  0  0  0  0  0  0  0  0
    1.7093   -4.6688   -1.9840 C   0  0  0  0  0  0  0  0  0  0  0  0
    1.3334   -5.5078   -0.8009 C   0  0  0  0  0  0  0  0  0  0  0  0
    0.1555   -5.1074   -0.0270 O   0  0  0  0  0  0  0  0  0  0  0  0
   -4.5341   -3.4432    1.7218 O   0  0  0  0  0  0  0  0  0  0  0  0
   -6.4219   -2.5482   -0.1933 C   0  0  0  0  0  0  0  0  0  0  0  0
   -6.9597   -3.1211   -1.5333 C   0  0  0  0  0  0  0  0  0  0  0  0
   -6.3994   -2.3897   -2.7584 C   0  0  0  0  0  0  0  0  0  0  0  0
   -4.7230   -1.4116   -4.9181 O   0  0  0  0  0  0  0  0  0  0  0  0
    0.9726   -0.4398   -4.2334 C   0  0  0  0  0  0  0  0  0  0  0  0
    1.8240   -0.7558   -5.2918 C   0  0  0  0  0  0  0  0  0  0  0  0
    2.4110   -2.0598   -5.3381 C   0  0  0  0  0  0  0  0  0  0  0  0
    2.0685   -2.9596   -4.3148 C   0  0  0  0  0  0  0  0  0  0  0  0
    1.2113   -2.6109   -3.2559 C   0  0  0  0  0  0  0  0  0  0  0  0
    0.6592   -1.3268   -3.2066 C   0  0  0  0  0  0  0  0  0  0  0  0
    3.5816    0.0933    2.7408 F   0  0  0  0  0  0  0  0  0  0  0  0
  1  2  1  0  0  0  0
  2  3  1  0  0  0  0
  2  5  1  0  0  0  0
  3  4  1  0  0  0  0
  5  6  4  0  0  0  0
  5 10  4  0  0  0  0
  6  7  4  0  0  0  0
  7  8  4  0  0  0  0
  8  9  4  0  0  0  0
  9 10  4  0  0  0  0
 10 11  1  0  0  0  0
 11 12  4  0  0  0  0
 11 15  4  0  0  0  0
 12 13  1  0  0  0  0
 12 68  4  0  0  0  0
 13 14  1  0  0  0  0
 15 16  1  0  0  0  0
 15 67  4  0  0  0  0
 16 17  1  0  0  0  0
 17 18  1  0  0  0  0
 17 19  1  0  0  0  0
 17 20  1  0  0  0  0
 20 21  1  0  0  0  0
 21 22  1  0  0  0  0
 22 23  1  0  0  0  0
 22 66  2  0  0  0  0
 23 24  1  0  0  0  0
 23 65  1  0  0  0  0
 24 25  1  0  0  0  0
 25 26  1  0  0  0  0
 25 63  1  0  0  0  0
 26 27  1  0  0  0  0
 26 62  2  0  0  0  0
 27 28  1  0  0  0  0
 27 55  1  0  0  0  0
 28 29  1  0  0  0  0
 29 30  1  0  0  0  0
 29 54  2  0  0  0  0
 30 31  1  0  0  0  0
 30 34  1  0  0  0  0
 31 32  1  0  0  0  0
 31 33  1  0  0  0  0
 34 35  1  0  0  0  0
 34 53  1  0  0  0  0
 35 36  1  0  0  0  0
 35 52  2  0  0  0  0
 36 37  1  0  0  0  0
 36 51  1  0  0  0  0
 36 73  1  0  0  0  0
 37 38  1  0  0  0  0
 38 39  1  0  0  0  0
 39 40  1  0  0  0  0
 39 50  1  0  0  0  0
 40 41  1  0  0  0  0
 40 49  2  0  0  0  0
 41 42  1  0  0  0  0
 42 43  1  0  0  0  0
 43 44  1  0  0  0  0
 43 47  1  0  0  0  0
 43 48  1  0  0  0  0
 44 45  1  0  0  0  0
 44 46  1  0  0  0  0
 50 51  1  0  0  0  0
 55 56  1  0  0  0  0
 56 57  1  0  0  0  0
 56 61  1  0  0  0  0
 57 58  1  0  0  0  0
 58 59  1  0  0  0  0
 58 71  1  0  0  0  0
 59 60  1  0  0  0  0
 60 61  1  0  0  0  0
 63 64  1  0  0  0  0
 64 65  1  0  0  0  0
 67 68  4  0  0  0  0
 67 72  4  0  0  0  0
 68 69  4  0  0  0  0
 69 70  4  0  0  0  0
 70 71  4  0  0  0  0
 71 72  4  0  0  0  0
M  END
$$$$
