mol_ETKDG1_62
  PyMOL3.1          3D                             0

 73 79  0  0  0  0  0  0  0  0999 V2000
   -2.6371    3.7450   -5.4379 C   0  0  0  0  0  0  0  0  0  0  0  0
   -3.5186    3.5567   -4.2548 C   0  0  0  0  0  0  0  0  0  0  0  0
   -4.5501    2.6074   -4.4275 O   0  0  0  0  0  0  0  0  0  0  0  0
   -4.2013    1.2494   -4.3391 C   0  0  0  0  0  0  0  0  0  0  0  0
   -4.1787    4.8075   -3.8220 C   0  0  0  0  0  0  0  0  0  0  0  0
   -5.1340    5.2999   -4.5926 N   0  0  0  0  0  0  0  0  0  0  0  0
   -5.7491    6.4617   -4.2897 C   0  0  0  0  0  0  0  0  0  0  0  0
   -5.3946    7.2053   -3.1571 C   0  0  0  0  0  0  0  0  0  0  0  0
   -4.3811    6.7028   -2.3312 C   0  0  0  0  0  0  0  0  0  0  0  0
   -3.7950    5.4716   -2.6580 C   0  0  0  0  0  0  0  0  0  0  0  0
   -2.7894    4.9335   -1.7760 C   0  0  0  0  0  0  0  0  0  0  0  0
   -1.4738    5.2516   -1.8751 N   0  0  0  0  0  0  0  0  0  0  0  0
   -0.8175    6.1568   -2.8844 C   0  0  0  0  0  0  0  0  0  0  0  0
   -0.5756    7.5089   -2.3676 C   0  0  0  0  0  0  0  0  0  0  0  0
   -2.9984    3.9583   -0.7472 C   0  0  0  0  0  0  0  0  0  0  0  0
   -4.2216    3.1778   -0.3183 C   0  0  0  0  0  0  0  0  0  0  0  0
   -5.1278    3.8377    0.8190 C   0  0  0  0  0  0  0  0  0  0  0  0
   -6.3645    2.9551    0.9345 C   0  0  0  0  0  0  0  0  0  0  0  0
   -5.6324    5.1679    0.4000 C   0  0  0  0  0  0  0  0  0  0  0  0
   -4.4287    4.0010    2.2094 C   0  0  0  0  0  0  0  0  0  0  0  0
   -4.3897    2.7967    3.1158 O   0  0  0  0  0  0  0  0  0  0  0  0
   -5.1816    2.6242    4.3086 C   0  0  0  0  0  0  0  0  0  0  0  0
   -4.8853    1.4097    5.2022 C   0  0  0  0  0  0  0  0  0  0  0  0
   -4.6606    0.2613    4.3908 N   0  0  0  0  0  0  0  0  0  0  0  0
   -4.4178   -0.9611    5.0203 N   0  0  0  0  0  0  0  0  0  0  0  0
   -3.3243   -1.7176    4.7060 C   0  0  0  0  0  0  0  0  0  0  0  0
   -2.3595   -1.1940    3.6895 C   0  0  0  0  0  0  0  0  0  0  0  0
   -1.9285   -2.2423    2.7796 N   0  0  0  0  0  0  0  0  0  0  0  0
   -2.4006   -2.3620    1.5205 C   0  0  0  0  0  0  0  0  0  0  0  0
   -1.7381   -3.3911    0.6657 C   0  0  0  0  0  0  0  0  0  0  0  0
   -2.5187   -4.7254    0.4944 C   0  0  0  0  0  0  0  0  0  0  0  0
   -1.6536   -5.8478    0.0344 C   0  0  0  0  0  0  0  0  0  0  0  0
   -3.4139   -5.0775    1.6310 C   0  0  0  0  0  0  0  0  0  0  0  0
   -1.4435   -2.7588   -0.6240 N   0  0  0  0  0  0  0  0  0  0  0  0
   -0.2859   -2.0237   -0.7455 C   0  0  0  0  0  0  0  0  0  0  0  0
    0.1457   -1.2757   -1.9857 C   0  0  0  0  0  0  0  0  0  0  0  0
    1.6454   -0.9506   -1.9929 C   0  0  0  0  0  0  0  0  0  0  0  0
    2.0144   -0.1073   -3.1682 C   0  0  0  0  0  0  0  0  0  0  0  0
    1.1230    1.0634   -3.2802 N   0  0  0  0  0  0  0  0  0  0  0  0
    1.5633    2.3507   -3.4216 C   0  0  0  0  0  0  0  0  0  0  0  0
    2.8232    2.7600   -3.0278 C   0  0  0  0  0  0  0  0  0  0  0  0
    3.8561    3.2106   -2.7656 C   0  0  0  0  0  0  0  0  0  0  0  0
    5.1616    3.5483   -2.3490 C   0  0  0  0  0  0  0  0  0  0  0  0
    6.1303    3.1696   -3.3215 N   0  0  0  0  0  0  0  0  0  0  0  0
    5.9075    2.0523   -4.1411 C   0  0  0  0  0  0  0  0  0  0  0  0
    7.3340    3.8559   -3.5148 C   0  0  0  0  0  0  0  0  0  0  0  0
    5.2155    5.0309   -2.0939 C   0  0  0  0  0  0  0  0  0  0  0  0
    5.4778    2.8374   -1.0293 C   0  0  0  0  0  0  0  0  0  0  0  0
    0.7839    3.2135   -3.8611 O   0  0  0  0  0  0  0  0  0  0  0  0
   -0.2855    0.8108   -3.2350 C   0  0  0  0  0  0  0  0  0  0  0  0
   -0.6395    0.0292   -2.0192 C   0  0  0  0  0  0  0  0  0  0  0  0
    0.4497   -1.9522    0.2616 O   0  0  0  0  0  0  0  0  0  0  0  0
   -2.4502   -2.8398   -1.7040 C   0  0  0  0  0  0  0  0  0  0  0  0
   -3.2340   -1.5834    1.0948 O   0  0  0  0  0  0  0  0  0  0  0  0
   -1.1074   -0.5604    4.4219 C   0  0  0  0  0  0  0  0  0  0  0  0
   -0.0254    0.0259    3.4749 C   0  0  0  0  0  0  0  0  0  0  0  0
   -0.5117    1.3365    2.9666 C   0  0  0  0  0  0  0  0  0  0  0  0
    0.4696    1.9951    2.1371 N   0  0  0  0  0  0  0  0  0  0  0  0
    1.8063    2.1161    2.7280 C   0  0  0  0  0  0  0  0  0  0  0  0
    2.2476    0.7870    3.3646 C   0  0  0  0  0  0  0  0  0  0  0  0
    1.1972    0.2279    4.2282 O   0  0  0  0  0  0  0  0  0  0  0  0
   -3.0861   -2.8039    5.2673 O   0  0  0  0  0  0  0  0  0  0  0  0
   -5.4393   -1.4101    5.9660 C   0  0  0  0  0  0  0  0  0  0  0  0
   -5.7585   -0.2589    6.9403 C   0  0  0  0  0  0  0  0  0  0  0  0
   -6.0221    1.0726    6.2213 C   0  0  0  0  0  0  0  0  0  0  0  0
   -6.0892    3.4083    4.6234 O   0  0  0  0  0  0  0  0  0  0  0  0
   -1.7153    3.7702   -0.2151 C   0  0  0  0  0  0  0  0  0  0  0  0
   -0.8149    4.5657   -0.9309 C   0  0  0  0  0  0  0  0  0  0  0  0
    0.5763    4.5146   -0.6033 C   0  0  0  0  0  0  0  0  0  0  0  0
    0.9645    3.6347    0.4149 C   0  0  0  0  0  0  0  0  0  0  0  0
    0.0451    2.8533    1.1192 C   0  0  0  0  0  0  0  0  0  0  0  0
   -1.3193    2.9087    0.7949 C   0  0  0  0  0  0  0  0  0  0  0  0
   -0.1017   -2.0224   -3.1272 F   0  0  0  0  0  0  0  0  0  0  0  0
  1  2  1  0  0  0  0
  2  3  1  0  0  0  0
  2  5  1  0  0  0  0
  3  4  1  0  0  0  0
  5  6  4  0  0  0  0
  5 10  4  0  0  0  0
  6  7  4  0  0  0  0
  7  8  4  0  0  0  0
  8  9  4  0  0  0  0
  9 10  4  0  0  0  0
 10 11  1  0  0  0  0
 11 12  4  0  0  0  0
 11 15  4  0  0  0  0
 12 13  1  0  0  0  0
 12 68  4  0  0  0  0
 13 14  1  0  0  0  0
 15 16  1  0  0  0  0
 15 67  4  0  0  0  0
 16 17  1  0  0  0  0
 17 18  1  0  0  0  0
 17 19  1  0  0  0  0
 17 20  1  0  0  0  0
 20 21  1  0  0  0  0
 21 22  1  0  0  0  0
 22 23  1  0  0  0  0
 22 66  2  0  0  0  0
 23 24  1  0  0  0  0
 23 65  1  0  0  0  0
 24 25  1  0  0  0  0
 25 26  1  0  0  0  0
 25 63  1  0  0  0  0
 26 27  1  0  0  0  0
 26 62  2  0  0  0  0
 27 28  1  0  0  0  0
 27 55  1  0  0  0  0
 28 29  1  0  0  0  0
 29 30  1  0  0  0  0
 29 54  2  0  0  0  0
 30 31  1  0  0  0  0
 30 34  1  0  0  0  0
 31 32  1  0  0  0  0
 31 33  1  0  0  0  0
 34 35  1  0  0  0  0
 34 53  1  0  0  0  0
 35 36  1  0  0  0  0
 35 52  2  0  0  0  0
 36 37  1  0  0  0  0
 36 51  1  0  0  0  0
 36 73  1  0  0  0  0
 37 38  1  0  0  0  0
 38 39  1  0  0  0  0
 39 40  1  0  0  0  0
 39 50  1  0  0  0  0
 40 41  1  0  0  0  0
 40 49  2  0  0  0  0
 41 42  1  0  0  0  0
 42 43  1  0  0  0  0
 43 44  1  0  0  0  0
 43 47  1  0  0  0  0
 43 48  1  0  0  0  0
 44 45  1  0  0  0  0
 44 46  1  0  0  0  0
 50 51  1  0  0  0  0
 55 56  1  0  0  0  0
 56 57  1  0  0  0  0
 56 61  1  0  0  0  0
 57 58  1  0  0  0  0
 58 59  1  0  0  0  0
 58 71  1  0  0  0  0
 59 60  1  0  0  0  0
 60 61  1  0  0  0  0
 63 64  1  0  0  0  0
 64 65  1  0  0  0  0
 67 68  4  0  0  0  0
 67 72  4  0  0  0  0
 68 69  4  0  0  0  0
 69 70  4  0  0  0  0
 70 71  4  0  0  0  0
 71 72  4  0  0  0  0
M  END
$$$$
