mol_ETKDG5_281
  PyMOL3.1          3D                             0

 73 79  0  0  0  0  0  0  0  0999 V2000
    1.5792   -2.2669   -0.9529 C   0  0  0  0  0  0  0  0  0  0  0  0
    2.9728   -1.8398   -1.0444 C   0  0  0  0  0  0  0  0  0  0  0  0
    3.8723   -2.8253   -0.4642 O   0  0  0  0  0  0  0  0  0  0  0  0
    4.1773   -2.6683    0.8933 C   0  0  0  0  0  0  0  0  0  0  0  0
    3.4312   -1.5620   -2.4411 C   0  0  0  0  0  0  0  0  0  0  0  0
    4.1912   -2.4657   -3.0349 N   0  0  0  0  0  0  0  0  0  0  0  0
    4.7059   -2.2736   -4.2663 C   0  0  0  0  0  0  0  0  0  0  0  0
    4.4373   -1.1143   -4.9933 C   0  0  0  0  0  0  0  0  0  0  0  0
    3.6218   -0.1434   -4.4034 C   0  0  0  0  0  0  0  0  0  0  0  0
    3.0851   -0.3889   -3.1306 C   0  0  0  0  0  0  0  0  0  0  0  0
    2.2140    0.6192   -2.5712 C   0  0  0  0  0  0  0  0  0  0  0  0
    2.6452    1.5623   -1.6979 N   0  0  0  0  0  0  0  0  0  0  0  0
    4.0361    1.7146   -1.1253 C   0  0  0  0  0  0  0  0  0  0  0  0
    4.8090    2.7765   -1.7835 C   0  0  0  0  0  0  0  0  0  0  0  0
    0.7976    0.7351   -2.7742 C   0  0  0  0  0  0  0  0  0  0  0  0
   -0.1907   -0.1444   -3.4916 C   0  0  0  0  0  0  0  0  0  0  0  0
   -0.4032    0.0349   -5.0470 C   0  0  0  0  0  0  0  0  0  0  0  0
   -1.6543   -0.7354   -5.4237 C   0  0  0  0  0  0  0  0  0  0  0  0
    0.6812   -0.6381   -5.8314 C   0  0  0  0  0  0  0  0  0  0  0  0
   -0.5440    1.4879   -5.4802 C   0  0  0  0  0  0  0  0  0  0  0  0
   -1.9560    2.0183   -5.5325 O   0  0  0  0  0  0  0  0  0  0  0  0
   -2.5081    2.7803   -6.5943 C   0  0  0  0  0  0  0  0  0  0  0  0
   -3.9594    3.2621   -6.4673 C   0  0  0  0  0  0  0  0  0  0  0  0
   -4.7054    2.3542   -5.6294 N   0  0  0  0  0  0  0  0  0  0  0  0
   -6.0781    2.5698   -5.4591 N   0  0  0  0  0  0  0  0  0  0  0  0
   -6.6470    2.6488   -4.2017 C   0  0  0  0  0  0  0  0  0  0  0  0
   -5.7416    2.5902   -2.9959 C   0  0  0  0  0  0  0  0  0  0  0  0
   -6.2985    1.8137   -1.8989 N   0  0  0  0  0  0  0  0  0  0  0  0
   -5.8645    0.5756   -1.5402 C   0  0  0  0  0  0  0  0  0  0  0  0
   -6.4189    0.0309   -0.2570 C   0  0  0  0  0  0  0  0  0  0  0  0
   -7.5549   -1.0228   -0.4272 C   0  0  0  0  0  0  0  0  0  0  0  0
   -8.3693   -1.2185    0.8124 C   0  0  0  0  0  0  0  0  0  0  0  0
   -8.3679   -0.8724   -1.6652 C   0  0  0  0  0  0  0  0  0  0  0  0
   -5.2757   -0.4981    0.5131 N   0  0  0  0  0  0  0  0  0  0  0  0
   -4.4932    0.3898    1.2347 C   0  0  0  0  0  0  0  0  0  0  0  0
   -3.2446    0.0218    2.0223 C   0  0  0  0  0  0  0  0  0  0  0  0
   -2.8800    1.0782    3.0830 C   0  0  0  0  0  0  0  0  0  0  0  0
   -1.5593    0.7583    3.7514 C   0  0  0  0  0  0  0  0  0  0  0  0
   -0.5135    0.5558    2.7230 N   0  0  0  0  0  0  0  0  0  0  0  0
    0.6650    1.2745    2.6661 C   0  0  0  0  0  0  0  0  0  0  0  0
    0.7908    2.5345    3.2467 C   0  0  0  0  0  0  0  0  0  0  0  0
    0.9950    3.5837    3.7367 C   0  0  0  0  0  0  0  0  0  0  0  0
    1.0553    4.8628    4.3610 C   0  0  0  0  0  0  0  0  0  0  0  0
    1.6135    4.7436    5.6755 N   0  0  0  0  0  0  0  0  0  0  0  0
    0.8030    4.4996    6.8027 C   0  0  0  0  0  0  0  0  0  0  0  0
    3.0218    4.6965    5.8739 C   0  0  0  0  0  0  0  0  0  0  0  0
   -0.3576    5.4516    4.4187 C   0  0  0  0  0  0  0  0  0  0  0  0
    1.8799    5.8302    3.5299 C   0  0  0  0  0  0  0  0  0  0  0  0
    1.6269    0.8302    2.0098 O   0  0  0  0  0  0  0  0  0  0  0  0
   -0.8082   -0.4237    1.7157 C   0  0  0  0  0  0  0  0  0  0  0  0
   -2.0963   -0.0726    1.0186 C   0  0  0  0  0  0  0  0  0  0  0  0
   -4.8284    1.5915    1.2125 O   0  0  0  0  0  0  0  0  0  0  0  0
   -4.9270   -1.9247    0.3823 C   0  0  0  0  0  0  0  0  0  0  0  0
   -4.9782    0.0183   -2.1717 O   0  0  0  0  0  0  0  0  0  0  0  0
   -5.4903    4.0704   -2.4852 C   0  0  0  0  0  0  0  0  0  0  0  0
   -4.5219    4.1844   -1.2772 C   0  0  0  0  0  0  0  0  0  0  0  0
   -3.1441    4.0439   -1.8055 C   0  0  0  0  0  0  0  0  0  0  0  0
   -2.1547    4.1822   -0.7651 N   0  0  0  0  0  0  0  0  0  0  0  0
   -2.2747    5.4354    0.0194 C   0  0  0  0  0  0  0  0  0  0  0  0
   -3.7365    5.6479    0.4702 C   0  0  0  0  0  0  0  0  0  0  0  0
   -4.6731    5.4983   -0.6623 O   0  0  0  0  0  0  0  0  0  0  0  0
   -7.8646    2.8371   -4.0412 O   0  0  0  0  0  0  0  0  0  0  0  0
   -6.8626    2.6388   -6.6964 C   0  0  0  0  0  0  0  0  0  0  0  0
   -6.1830    3.6278   -7.6782 C   0  0  0  0  0  0  0  0  0  0  0  0
   -4.6826    3.3459   -7.8484 C   0  0  0  0  0  0  0  0  0  0  0  0
   -1.8656    3.0896   -7.6283 O   0  0  0  0  0  0  0  0  0  0  0  0
    0.4484    1.8660   -2.0055 C   0  0  0  0  0  0  0  0  0  0  0  0
    1.5984    2.3327   -1.3605 C   0  0  0  0  0  0  0  0  0  0  0  0
    1.5036    3.4607   -0.4785 C   0  0  0  0  0  0  0  0  0  0  0  0
    0.2349    4.0329   -0.3027 C   0  0  0  0  0  0  0  0  0  0  0  0
   -0.9052    3.5633   -0.9610 C   0  0  0  0  0  0  0  0  0  0  0  0
   -0.8096    2.4472   -1.8223 C   0  0  0  0  0  0  0  0  0  0  0  0
   -3.4061   -1.1781    2.6930 F   0  0  0  0  0  0  0  0  0  0  0  0
  1  2  1  0  0  0  0
  2  3  1  0  0  0  0
  2  5  1  0  0  0  0
  3  4  1  0  0  0  0
  5  6  4  0  0  0  0
  5 10  4  0  0  0  0
  6  7  4  0  0  0  0
  7  8  4  0  0  0  0
  8  9  4  0  0  0  0
  9 10  4  0  0  0  0
 10 11  1  0  0  0  0
 11 12  4  0  0  0  0
 11 15  4  0  0  0  0
 12 13  1  0  0  0  0
 12 68  4  0  0  0  0
 13 14  1  0  0  0  0
 15 16  1  0  0  0  0
 15 67  4  0  0  0  0
 16 17  1  0  0  0  0
 17 18  1  0  0  0  0
 17 19  1  0  0  0  0
 17 20  1  0  0  0  0
 20 21  1  0  0  0  0
 21 22  1  0  0  0  0
 22 23  1  0  0  0  0
 22 66  2  0  0  0  0
 23 24  1  0  0  0  0
 23 65  1  0  0  0  0
 24 25  1  0  0  0  0
 25 26  1  0  0  0  0
 25 63  1  0  0  0  0
 26 27  1  0  0  0  0
 26 62  2  0  0  0  0
 27 28  1  0  0  0  0
 27 55  1  0  0  0  0
 28 29  1  0  0  0  0
 29 30  1  0  0  0  0
 29 54  2  0  0  0  0
 30 31  1  0  0  0  0
 30 34  1  0  0  0  0
 31 32  1  0  0  0  0
 31 33  1  0  0  0  0
 34 35  1  0  0  0  0
 34 53  1  0  0  0  0
 35 36  1  0  0  0  0
 35 52  2  0  0  0  0
 36 37  1  0  0  0  0
 36 51  1  0  0  0  0
 36 73  1  0  0  0  0
 37 38  1  0  0  0  0
 38 39  1  0  0  0  0
 39 40  1  0  0  0  0
 39 50  1  0  0  0  0
 40 41  1  0  0  0  0
 40 49  2  0  0  0  0
 41 42  1  0  0  0  0
 42 43  1  0  0  0  0
 43 44  1  0  0  0  0
 43 47  1  0  0  0  0
 43 48  1  0  0  0  0
 44 45  1  0  0  0  0
 44 46  1  0  0  0  0
 50 51  1  0  0  0  0
 55 56  1  0  0  0  0
 56 57  1  0  0  0  0
 56 61  1  0  0  0  0
 57 58  1  0  0  0  0
 58 59  1  0  0  0  0
 58 71  1  0  0  0  0
 59 60  1  0  0  0  0
 60 61  1  0  0  0  0
 63 64  1  0  0  0  0
 64 65  1  0  0  0  0
 67 68  4  0  0  0  0
 67 72  4  0  0  0  0
 68 69  4  0  0  0  0
 69 70  4  0  0  0  0
 70 71  4  0  0  0  0
 71 72  4  0  0  0  0
M  END
$$$$
