mol_ETKDG0_310
  PyMOL3.1          3D                             0

 73 79  0  0  0  0  0  0  0  0999 V2000
   -4.1222   -2.3033    0.9246 C   0  0  0  0  0  0  0  0  0  0  0  0
   -2.6779   -1.9948    0.8106 C   0  0  0  0  0  0  0  0  0  0  0  0
   -2.3314   -0.6549    1.1048 O   0  0  0  0  0  0  0  0  0  0  0  0
   -2.6213    0.3099    0.1239 C   0  0  0  0  0  0  0  0  0  0  0  0
   -1.8410   -2.8551    1.6672 C   0  0  0  0  0  0  0  0  0  0  0  0
   -1.9143   -2.6728    2.9714 N   0  0  0  0  0  0  0  0  0  0  0  0
   -1.2303   -3.4578    3.8282 C   0  0  0  0  0  0  0  0  0  0  0  0
   -0.4227   -4.5006    3.3747 C   0  0  0  0  0  0  0  0  0  0  0  0
   -0.3334   -4.7133    1.9988 C   0  0  0  0  0  0  0  0  0  0  0  0
   -1.0312   -3.8556    1.1387 C   0  0  0  0  0  0  0  0  0  0  0  0
   -0.8925   -4.0600   -0.2827 C   0  0  0  0  0  0  0  0  0  0  0  0
   -1.5519   -5.0310   -0.9560 N   0  0  0  0  0  0  0  0  0  0  0  0
   -2.5428   -6.0162   -0.4122 C   0  0  0  0  0  0  0  0  0  0  0  0
   -1.9963   -7.3727   -0.3055 C   0  0  0  0  0  0  0  0  0  0  0  0
   -0.1224   -3.2654   -1.1778 C   0  0  0  0  0  0  0  0  0  0  0  0
    0.6527   -1.9950   -0.9702 C   0  0  0  0  0  0  0  0  0  0  0  0
    2.1190   -2.1016   -0.4092 C   0  0  0  0  0  0  0  0  0  0  0  0
    2.5791   -0.6963   -0.0314 C   0  0  0  0  0  0  0  0  0  0  0  0
    2.1978   -2.8709    0.8502 C   0  0  0  0  0  0  0  0  0  0  0  0
    3.0451   -2.7002   -1.4189 C   0  0  0  0  0  0  0  0  0  0  0  0
    3.5071   -1.8096   -2.5461 O   0  0  0  0  0  0  0  0  0  0  0  0
    4.8364   -1.8123   -3.0640 C   0  0  0  0  0  0  0  0  0  0  0  0
    5.1476   -0.9842   -4.2952 C   0  0  0  0  0  0  0  0  0  0  0  0
    4.1113   -0.0311   -4.5563 N   0  0  0  0  0  0  0  0  0  0  0  0
    4.2889    0.8327   -5.6382 N   0  0  0  0  0  0  0  0  0  0  0  0
    3.3537    0.9440   -6.6313 C   0  0  0  0  0  0  0  0  0  0  0  0
    2.1220    0.0925   -6.5651 C   0  0  0  0  0  0  0  0  0  0  0  0
    0.9446    0.8169   -6.9832 N   0  0  0  0  0  0  0  0  0  0  0  0
    0.0277    1.2852   -6.1330 C   0  0  0  0  0  0  0  0  0  0  0  0
   -1.2157    1.8633   -6.7307 C   0  0  0  0  0  0  0  0  0  0  0  0
   -1.2135    3.4141   -6.8538 C   0  0  0  0  0  0  0  0  0  0  0  0
   -2.2771    3.9303   -7.7545 C   0  0  0  0  0  0  0  0  0  0  0  0
    0.1242    4.0086   -7.1062 C   0  0  0  0  0  0  0  0  0  0  0  0
   -2.3271    1.3910   -5.9099 N   0  0  0  0  0  0  0  0  0  0  0  0
   -2.8600    0.1520   -6.1679 C   0  0  0  0  0  0  0  0  0  0  0  0
   -3.9458   -0.4820   -5.3461 C   0  0  0  0  0  0  0  0  0  0  0  0
   -3.2694   -1.0829   -4.1390 C   0  0  0  0  0  0  0  0  0  0  0  0
   -4.2453   -1.6443   -3.2030 C   0  0  0  0  0  0  0  0  0  0  0  0
   -5.1079   -2.5914   -3.8944 N   0  0  0  0  0  0  0  0  0  0  0  0
   -5.3123   -3.8131   -3.3483 C   0  0  0  0  0  0  0  0  0  0  0  0
   -6.1206   -4.7171   -3.9842 C   0  0  0  0  0  0  0  0  0  0  0  0
   -6.8369   -5.5136   -4.3711 C   0  0  0  0  0  0  0  0  0  0  0  0
   -7.7213   -6.4186   -4.9676 C   0  0  0  0  0  0  0  0  0  0  0  0
   -8.2624   -7.2614   -3.9436 N   0  0  0  0  0  0  0  0  0  0  0  0
   -7.6175   -8.4571   -3.6023 C   0  0  0  0  0  0  0  0  0  0  0  0
   -9.1189   -6.6757   -2.9646 C   0  0  0  0  0  0  0  0  0  0  0  0
   -6.9897   -7.1949   -6.0389 C   0  0  0  0  0  0  0  0  0  0  0  0
   -8.8587   -5.6970   -5.6640 C   0  0  0  0  0  0  0  0  0  0  0  0
   -4.7776   -4.1290   -2.2835 O   0  0  0  0  0  0  0  0  0  0  0  0
   -5.7121   -2.1713   -5.1329 C   0  0  0  0  0  0  0  0  0  0  0  0
   -4.7466   -1.5647   -6.0656 C   0  0  0  0  0  0  0  0  0  0  0  0
   -2.3844   -0.4968   -7.1212 O   0  0  0  0  0  0  0  0  0  0  0  0
   -2.7459    2.2043   -4.7534 C   0  0  0  0  0  0  0  0  0  0  0  0
    0.1779    1.1233   -4.9313 O   0  0  0  0  0  0  0  0  0  0  0  0
    2.2938   -1.1664   -7.4892 C   0  0  0  0  0  0  0  0  0  0  0  0
    1.0967   -2.1447   -7.4523 C   0  0  0  0  0  0  0  0  0  0  0  0
    1.1910   -2.8937   -6.1776 C   0  0  0  0  0  0  0  0  0  0  0  0
    0.1727   -3.8976   -6.0656 N   0  0  0  0  0  0  0  0  0  0  0  0
    0.0891   -4.8116   -7.2134 C   0  0  0  0  0  0  0  0  0  0  0  0
    0.1247   -4.0378   -8.5412 C   0  0  0  0  0  0  0  0  0  0  0  0
    1.2207   -3.0598   -8.5695 O   0  0  0  0  0  0  0  0  0  0  0  0
    3.5151    1.6952   -7.6062 O   0  0  0  0  0  0  0  0  0  0  0  0
    5.4989    1.6459   -5.6002 C   0  0  0  0  0  0  0  0  0  0  0  0
    6.7118    0.7350   -5.3476 C   0  0  0  0  0  0  0  0  0  0  0  0
    6.4947   -0.2123   -4.1683 C   0  0  0  0  0  0  0  0  0  0  0  0
    5.7930   -2.4518   -2.5629 O   0  0  0  0  0  0  0  0  0  0  0  0
   -0.3360   -3.8773   -2.4253 C   0  0  0  0  0  0  0  0  0  0  0  0
   -1.2168   -4.9407   -2.2469 C   0  0  0  0  0  0  0  0  0  0  0  0
   -1.6477   -5.7014   -3.3821 C   0  0  0  0  0  0  0  0  0  0  0  0
   -1.1633   -5.3185   -4.6313 C   0  0  0  0  0  0  0  0  0  0  0  0
   -0.2811   -4.2554   -4.7935 C   0  0  0  0  0  0  0  0  0  0  0  0
    0.1480   -3.5125   -3.6753 C   0  0  0  0  0  0  0  0  0  0  0  0
   -4.8912    0.4473   -4.9973 F   0  0  0  0  0  0  0  0  0  0  0  0
  1  2  1  0  0  0  0
  2  3  1  0  0  0  0
  2  5  1  0  0  0  0
  3  4  1  0  0  0  0
  5  6  4  0  0  0  0
  5 10  4  0  0  0  0
  6  7  4  0  0  0  0
  7  8  4  0  0  0  0
  8  9  4  0  0  0  0
  9 10  4  0  0  0  0
 10 11  1  0  0  0  0
 11 12  4  0  0  0  0
 11 15  4  0  0  0  0
 12 13  1  0  0  0  0
 12 68  4  0  0  0  0
 13 14  1  0  0  0  0
 15 16  1  0  0  0  0
 15 67  4  0  0  0  0
 16 17  1  0  0  0  0
 17 18  1  0  0  0  0
 17 19  1  0  0  0  0
 17 20  1  0  0  0  0
 20 21  1  0  0  0  0
 21 22  1  0  0  0  0
 22 23  1  0  0  0  0
 22 66  2  0  0  0  0
 23 24  1  0  0  0  0
 23 65  1  0  0  0  0
 24 25  1  0  0  0  0
 25 26  1  0  0  0  0
 25 63  1  0  0  0  0
 26 27  1  0  0  0  0
 26 62  2  0  0  0  0
 27 28  1  0  0  0  0
 27 55  1  0  0  0  0
 28 29  1  0  0  0  0
 29 30  1  0  0  0  0
 29 54  2  0  0  0  0
 30 31  1  0  0  0  0
 30 34  1  0  0  0  0
 31 32  1  0  0  0  0
 31 33  1  0  0  0  0
 34 35  1  0  0  0  0
 34 53  1  0  0  0  0
 35 36  1  0  0  0  0
 35 52  2  0  0  0  0
 36 37  1  0  0  0  0
 36 51  1  0  0  0  0
 36 73  1  0  0  0  0
 37 38  1  0  0  0  0
 38 39  1  0  0  0  0
 39 40  1  0  0  0  0
 39 50  1  0  0  0  0
 40 41  1  0  0  0  0
 40 49  2  0  0  0  0
 41 42  1  0  0  0  0
 42 43  1  0  0  0  0
 43 44  1  0  0  0  0
 43 47  1  0  0  0  0
 43 48  1  0  0  0  0
 44 45  1  0  0  0  0
 44 46  1  0  0  0  0
 50 51  1  0  0  0  0
 55 56  1  0  0  0  0
 56 57  1  0  0  0  0
 56 61  1  0  0  0  0
 57 58  1  0  0  0  0
 58 59  1  0  0  0  0
 58 71  1  0  0  0  0
 59 60  1  0  0  0  0
 60 61  1  0  0  0  0
 63 64  1  0  0  0  0
 64 65  1  0  0  0  0
 67 68  4  0  0  0  0
 67 72  4  0  0  0  0
 68 69  4  0  0  0  0
 69 70  4  0  0  0  0
 70 71  4  0  0  0  0
 71 72  4  0  0  0  0
M  END
$$$$
