 energy: -221.262900383739 gnorm: 0.000454693139 xtb: 6.7.1 (edcfbbe)
          08182523383D

151157  0     0  0            999 V2000
    0.5898   15.6250  -12.2666 C   0  0  0  0  0  0  0  0  0  0  0  0
    0.2886   15.0895  -10.8658 C   0  0  0  0  0  0  0  0  0  0  0  0
    0.1124   16.1195   -9.9036 O   0  0  0  0  0  0  0  0  0  0  0  0
   -1.0554   16.8820  -10.0708 C   0  0  0  0  0  0  0  0  0  0  0  0
    1.4448   14.2414  -10.3751 C   0  0  0  0  0  0  0  0  0  0  0  0
    2.6571   14.6916  -10.6540 N   0  0  0  0  0  0  0  0  0  0  0  0
    3.7122   13.9990  -10.2722 C   0  0  0  0  0  0  0  0  0  0  0  0
    3.6218   12.7921   -9.5955 C   0  0  0  0  0  0  0  0  0  0  0  0
    2.3592   12.3120   -9.2992 C   0  0  0  0  0  0  0  0  0  0  0  0
    1.2341   13.0438   -9.6785 C   0  0  0  0  0  0  0  0  0  0  0  0
   -0.1113   12.5360   -9.3840 C   0  0  0  0  0  0  0  0  0  0  0  0
   -0.6059   11.4625  -10.0963 N   0  0  0  0  0  0  0  0  0  0  0  0
    0.0646   10.7460  -11.1482 C   0  0  0  0  0  0  0  0  0  0  0  0
    0.5938    9.3920  -10.6761 C   0  0  0  0  0  0  0  0  0  0  0  0
   -1.0480   12.9755   -8.4777 C   0  0  0  0  0  0  0  0  0  0  0  0
   -0.9744   14.1007   -7.4938 C   0  0  0  0  0  0  0  0  0  0  0  0
    0.0110   13.9549   -6.3036 C   0  0  0  0  0  0  0  0  0  0  0  0
   -0.5315   14.7682   -5.1243 C   0  0  0  0  0  0  0  0  0  0  0  0
    1.3865   14.5151   -6.6816 C   0  0  0  0  0  0  0  0  0  0  0  0
    0.2131   12.4898   -5.8748 C   0  0  0  0  0  0  0  0  0  0  0  0
   -0.7360   12.0510   -4.8971 O   0  0  0  0  0  0  0  0  0  0  0  0
   -1.3253   10.8807   -5.0735 C   0  0  0  0  0  0  0  0  0  0  0  0
   -2.1515   10.4845   -3.8512 C   0  0  0  0  0  0  0  0  0  0  0  0
   -2.3660    9.0458   -3.9212 N   0  0  0  0  0  0  0  0  0  0  0  0
   -3.2134    8.5770   -2.9123 N   0  0  0  0  0  0  0  0  0  0  0  0
   -4.4778    8.1420   -3.0421 C   0  0  0  0  0  0  0  0  0  0  0  0
   -5.1314    8.3166   -4.4166 C   0  0  0  0  0  0  0  0  0  0  0  0
   -6.2178    7.3779   -4.5398 N   0  0  0  0  0  0  0  0  0  0  0  0
   -6.3538    6.5868   -5.6197 C   0  0  0  0  0  0  0  0  0  0  0  0
   -7.5782    5.6664   -5.5706 C   0  0  0  0  0  0  0  0  0  0  0  0
   -7.2551    4.2903   -4.9565 C   0  0  0  0  0  0  0  0  0  0  0  0
   -8.4584    3.3601   -5.1011 C   0  0  0  0  0  0  0  0  0  0  0  0
   -6.8934    4.4443   -3.4800 C   0  0  0  0  0  0  0  0  0  0  0  0
   -8.1531    5.5874   -6.9105 N   0  0  0  0  0  0  0  0  0  0  0  0
   -9.2225    6.3712   -7.1414 C   0  0  0  0  0  0  0  0  0  0  0  0
   -9.8994    6.3644   -8.5246 C   0  0  0  0  0  0  0  0  0  0  0  0
  -10.6054    7.7030   -8.7608 C   0  0  0  0  0  0  0  0  0  0  0  0
  -11.4149    7.6519  -10.0582 C   0  0  0  0  0  0  0  0  0  0  0  0
  -12.3415    6.5496  -10.0267 N   0  0  0  0  0  0  0  0  0  0  0  0
  -13.6927    6.6657   -9.9993 C   0  0  0  0  0  0  0  0  0  0  0  0
  -14.1884    8.0131  -10.1463 C   0  0  0  0  0  0  0  0  0  0  0  0
  -14.7459    9.0670  -10.3174 C   0  0  0  0  0  0  0  0  0  0  0  0
  -15.3561   10.3948  -10.3740 C   0  0  0  0  0  0  0  0  0  0  0  0
  -15.6617   10.8867   -9.0197 N   0  0  0  0  0  0  0  0  0  0  0  0
  -16.6836   10.1130   -8.3363 C   0  0  0  0  0  0  0  0  0  0  0  0
  -14.4920   11.0262   -8.1722 C   0  0  0  0  0  0  0  0  0  0  0  0
  -16.6421   10.3097  -11.2106 C   0  0  0  0  0  0  0  0  0  0  0  0
  -14.3897   11.3645  -11.0748 C   0  0  0  0  0  0  0  0  0  0  0  0
  -14.4427    5.7130   -9.8837 O   0  0  0  0  0  0  0  0  0  0  0  0
  -11.7206    5.2583   -9.8621 C   0  0  0  0  0  0  0  0  0  0  0  0
  -10.9144    5.2146   -8.5626 C   0  0  0  0  0  0  0  0  0  0  0  0
   -9.7537    7.0298   -6.2574 O   0  0  0  0  0  0  0  0  0  0  0  0
   -7.4018    4.8940   -7.9361 C   0  0  0  0  0  0  0  0  0  0  0  0
   -5.5978    6.6390   -6.5695 O   0  0  0  0  0  0  0  0  0  0  0  0
   -5.6444    9.7693   -4.5120 C   0  0  0  0  0  0  0  0  0  0  0  0
   -5.1456   10.5051   -5.7617 C   0  0  0  0  0  0  0  0  0  0  0  0
   -5.9203   10.1220   -7.0355 C   0  0  0  0  0  0  0  0  0  0  0  0
   -5.7305   11.1467   -8.0427 N   0  0  0  0  0  0  0  0  0  0  0  0
   -6.3469   12.3912   -7.6141 C   0  0  0  0  0  0  0  0  0  0  0  0
   -6.2978   12.5634   -6.0808 C   0  0  0  0  0  0  0  0  0  0  0  0
   -5.1737   11.9118   -5.5320 O   0  0  0  0  0  0  0  0  0  0  0  0
   -5.1040    7.6557   -2.1132 O   0  0  0  0  0  0  0  0  0  0  0  0
   -2.5805    8.7200   -1.6154 C   0  0  0  0  0  0  0  0  0  0  0  0
   -2.2810   10.2021   -1.3752 C   0  0  0  0  0  0  0  0  0  0  0  0
   -1.4394   10.7631   -2.5232 C   0  0  0  0  0  0  0  0  0  0  0  0
   -1.2354   10.1897   -6.0554 O   0  0  0  0  0  0  0  0  0  0  0  0
   -2.1965   12.1446   -8.6598 C   0  0  0  0  0  0  0  0  0  0  0  0
   -1.8799   11.2099   -9.6704 C   0  0  0  0  0  0  0  0  0  0  0  0
   -2.8020   10.2570  -10.0892 C   0  0  0  0  0  0  0  0  0  0  0  0
   -4.0474   10.2699   -9.5076 C   0  0  0  0  0  0  0  0  0  0  0  0
   -4.3930   11.2122   -8.5251 C   0  0  0  0  0  0  0  0  0  0  0  0
   -3.4679   12.1395   -8.0877 C   0  0  0  0  0  0  0  0  0  0  0  0
   -8.9931    6.1968   -9.5661 F   0  0  0  0  0  0  0  0  0  0  0  0
   -0.2593   16.1757  -12.6629 H   0  0  0  0  0  0  0  0  0  0  0  0
    1.4592   16.2736  -12.2194 H   0  0  0  0  0  0  0  0  0  0  0  0
    0.8054   14.7932  -12.9318 H   0  0  0  0  0  0  0  0  0  0  0  0
   -0.6260   14.4716  -10.8940 H   0  0  0  0  0  0  0  0  0  0  0  0
   -1.9416   16.2384  -10.1443 H   0  0  0  0  0  0  0  0  0  0  0  0
   -1.1377   17.5102   -9.1848 H   0  0  0  0  0  0  0  0  0  0  0  0
   -1.0064   17.5241  -10.9560 H   0  0  0  0  0  0  0  0  0  0  0  0
    4.6707   14.4291  -10.5313 H   0  0  0  0  0  0  0  0  0  0  0  0
    4.5079   12.2474   -9.3091 H   0  0  0  0  0  0  0  0  0  0  0  0
    2.2338   11.3836   -8.7595 H   0  0  0  0  0  0  0  0  0  0  0  0
   -0.6467   10.5939  -11.9675 H   0  0  0  0  0  0  0  0  0  0  0  0
    0.8879   11.3625  -11.5204 H   0  0  0  0  0  0  0  0  0  0  0  0
    1.3605    9.5224   -9.9174 H   0  0  0  0  0  0  0  0  0  0  0  0
   -0.2122    8.8023  -10.2479 H   0  0  0  0  0  0  0  0  0  0  0  0
    1.0232    8.8487  -11.5139 H   0  0  0  0  0  0  0  0  0  0  0  0
   -0.7074   15.0192   -8.0186 H   0  0  0  0  0  0  0  0  0  0  0  0
   -1.9795   14.2275   -7.0883 H   0  0  0  0  0  0  0  0  0  0  0  0
    0.1446   14.7035   -4.2747 H   0  0  0  0  0  0  0  0  0  0  0  0
   -0.6296   15.8123   -5.4115 H   0  0  0  0  0  0  0  0  0  0  0  0
   -1.5044   14.3971   -4.8125 H   0  0  0  0  0  0  0  0  0  0  0  0
    2.0205   14.5924   -5.8002 H   0  0  0  0  0  0  0  0  0  0  0  0
    1.8825   13.8760   -7.4040 H   0  0  0  0  0  0  0  0  0  0  0  0
    1.2859   15.5041   -7.1207 H   0  0  0  0  0  0  0  0  0  0  0  0
    0.1600   11.8230   -6.7401 H   0  0  0  0  0  0  0  0  0  0  0  0
    1.1949   12.3848   -5.4001 H   0  0  0  0  0  0  0  0  0  0  0  0
   -3.0883   11.0676   -3.8908 H   0  0  0  0  0  0  0  0  0  0  0  0
   -2.6380    8.7429   -4.8493 H   0  0  0  0  0  0  0  0  0  0  0  0
   -4.4453    8.0905   -5.2385 H   0  0  0  0  0  0  0  0  0  0  0  0
   -6.7801    7.2522   -3.7104 H   0  0  0  0  0  0  0  0  0  0  0  0
   -8.3491    6.1432   -4.9555 H   0  0  0  0  0  0  0  0  0  0  0  0
   -6.3935    3.8517   -5.4703 H   0  0  0  0  0  0  0  0  0  0  0  0
   -9.3309    3.8003   -4.6235 H   0  0  0  0  0  0  0  0  0  0  0  0
   -8.6955    3.1774   -6.1453 H   0  0  0  0  0  0  0  0  0  0  0  0
   -8.2503    2.4044   -4.6262 H   0  0  0  0  0  0  0  0  0  0  0  0
   -7.7142    4.8988   -2.9292 H   0  0  0  0  0  0  0  0  0  0  0  0
   -6.6992    3.4655   -3.0474 H   0  0  0  0  0  0  0  0  0  0  0  0
   -6.0028    5.0519   -3.3443 H   0  0  0  0  0  0  0  0  0  0  0  0
  -11.2518    7.9040   -7.9071 H   0  0  0  0  0  0  0  0  0  0  0  0
   -9.8552    8.4927   -8.8227 H   0  0  0  0  0  0  0  0  0  0  0  0
  -11.9653    8.5837  -10.1980 H   0  0  0  0  0  0  0  0  0  0  0  0
  -10.7302    7.5141  -10.9042 H   0  0  0  0  0  0  0  0  0  0  0  0
  -16.8178   10.5308   -7.3396 H   0  0  0  0  0  0  0  0  0  0  0  0
  -17.6315   10.1983   -8.8614 H   0  0  0  0  0  0  0  0  0  0  0  0
  -16.4224    9.0502   -8.2353 H   0  0  0  0  0  0  0  0  0  0  0  0
  -14.8130   11.4327   -7.2140 H   0  0  0  0  0  0  0  0  0  0  0  0
  -13.9758   10.0722   -7.9882 H   0  0  0  0  0  0  0  0  0  0  0  0
  -13.7894   11.7295   -8.6113 H   0  0  0  0  0  0  0  0  0  0  0  0
  -17.2682    9.4807  -10.8937 H   0  0  0  0  0  0  0  0  0  0  0  0
  -17.1962   11.2402  -11.1177 H   0  0  0  0  0  0  0  0  0  0  0  0
  -16.3871   10.1522  -12.2558 H   0  0  0  0  0  0  0  0  0  0  0  0
  -13.3862   11.3033  -10.6624 H   0  0  0  0  0  0  0  0  0  0  0  0
  -14.3292   11.1210  -12.1326 H   0  0  0  0  0  0  0  0  0  0  0  0
  -14.7607   12.3802  -10.9652 H   0  0  0  0  0  0  0  0  0  0  0  0
  -12.5116    4.5058   -9.8477 H   0  0  0  0  0  0  0  0  0  0  0  0
  -11.0545    5.0714  -10.7126 H   0  0  0  0  0  0  0  0  0  0  0  0
  -10.3995    4.2561   -8.4833 H   0  0  0  0  0  0  0  0  0  0  0  0
  -11.5790    5.3252   -7.7047 H   0  0  0  0  0  0  0  0  0  0  0  0
   -6.6490    4.2748   -7.4605 H   0  0  0  0  0  0  0  0  0  0  0  0
   -8.0531    4.2577   -8.5346 H   0  0  0  0  0  0  0  0  0  0  0  0
   -6.8876    5.5979   -8.5907 H   0  0  0  0  0  0  0  0  0  0  0  0
   -6.7364    9.7553   -4.5056 H   0  0  0  0  0  0  0  0  0  0  0  0
   -5.3266   10.3399   -3.6349 H   0  0  0  0  0  0  0  0  0  0  0  0
   -4.0848   10.2795   -5.9318 H   0  0  0  0  0  0  0  0  0  0  0  0
   -5.5621    9.1615   -7.4073 H   0  0  0  0  0  0  0  0  0  0  0  0
   -6.9920   10.0358   -6.8303 H   0  0  0  0  0  0  0  0  0  0  0  0
   -5.8507   13.2201   -8.1194 H   0  0  0  0  0  0  0  0  0  0  0  0
   -7.3959   12.3734   -7.9374 H   0  0  0  0  0  0  0  0  0  0  0  0
   -6.1884   13.6136   -5.8033 H   0  0  0  0  0  0  0  0  0  0  0  0
   -7.2193   12.1786   -5.6223 H   0  0  0  0  0  0  0  0  0  0  0  0
   -3.2632    8.3202   -0.8655 H   0  0  0  0  0  0  0  0  0  0  0  0
   -1.6518    8.1433   -1.6178 H   0  0  0  0  0  0  0  0  0  0  0  0
   -3.2227   10.7516   -1.3085 H   0  0  0  0  0  0  0  0  0  0  0  0
   -1.7516   10.3180   -0.4296 H   0  0  0  0  0  0  0  0  0  0  0  0
   -0.4682   10.2660   -2.5387 H   0  0  0  0  0  0  0  0  0  0  0  0
   -1.2833   11.8342   -2.4017 H   0  0  0  0  0  0  0  0  0  0  0  0
   -2.5611    9.5341  -10.8538 H   0  0  0  0  0  0  0  0  0  0  0  0
   -4.7954    9.5533   -9.8097 H   0  0  0  0  0  0  0  0  0  0  0  0
   -3.7168   12.8431   -7.3078 H   0  0  0  0  0  0  0  0  0  0  0  0
  1  2  1  0  0  0  0
  2  3  1  0  0  0  0
  2  5  1  0  0  0  0
  3  4  1  0  0  0  0
  5  6  2  0  0  0  0
  5 10  1  0  0  0  0
  6  7  1  0  0  0  0
  7  8  2  0  0  0  0
  8  9  1  0  0  0  0
  9 10  2  0  0  0  0
 10 11  1  0  0  0  0
 11 12  1  0  0  0  0
 11 15  2  0  0  0  0
 12 13  1  0  0  0  0
 12 68  1  0  0  0  0
 13 14  1  0  0  0  0
 15 16  1  0  0  0  0
 15 67  1  0  0  0  0
 16 17  1  0  0  0  0
 17 18  1  0  0  0  0
 17 19  1  0  0  0  0
 17 20  1  0  0  0  0
 20 21  1  0  0  0  0
 21 22  1  0  0  0  0
 22 23  1  0  0  0  0
 22 66  2  0  0  0  0
 23 24  1  0  0  0  0
 23 65  1  0  0  0  0
 24 25  1  0  0  0  0
 25 26  1  0  0  0  0
 25 63  1  0  0  0  0
 26 27  1  0  0  0  0
 26 62  2  0  0  0  0
 27 28  1  0  0  0  0
 27 55  1  0  0  0  0
 28 29  1  0  0  0  0
 29 30  1  0  0  0  0
 29 54  2  0  0  0  0
 30 31  1  0  0  0  0
 30 34  1  0  0  0  0
 31 32  1  0  0  0  0
 31 33  1  0  0  0  0
 34 35  1  0  0  0  0
 34 53  1  0  0  0  0
 35 36  1  0  0  0  0
 35 52  2  0  0  0  0
 36 37  1  0  0  0  0
 36 51  1  0  0  0  0
 36 73  1  0  0  0  0
 37 38  1  0  0  0  0
 38 39  1  0  0  0  0
 39 40  1  0  0  0  0
 39 50  1  0  0  0  0
 40 41  1  0  0  0  0
 40 49  2  0  0  0  0
 42 43  1  0  0  0  0
 43 44  1  0  0  0  0
 43 47  1  0  0  0  0
 43 48  1  0  0  0  0
 44 45  1  0  0  0  0
 44 46  1  0  0  0  0
 50 51  1  0  0  0  0
 55 56  1  0  0  0  0
 56 57  1  0  0  0  0
 56 61  1  0  0  0  0
 57 58  1  0  0  0  0
 58 59  1  0  0  0  0
 58 71  1  0  0  0  0
 59 60  1  0  0  0  0
 60 61  1  0  0  0  0
 63 64  1  0  0  0  0
 64 65  1  0  0  0  0
 67 68  2  0  0  0  0
 67 72  1  0  0  0  0
 68 69  1  0  0  0  0
 69 70  2  0  0  0  0
 70 71  1  0  0  0  0
 71 72  2  0  0  0  0
 41 42  3  0  0  0  0
  1 74  1  0  0  0  0
  1 75  1  0  0  0  0
  1 76  1  0  0  0  0
  2 77  1  0  0  0  0
  4 78  1  0  0  0  0
  4 79  1  0  0  0  0
  4 80  1  0  0  0  0
  7 81  1  0  0  0  0
  8 82  1  0  0  0  0
  9 83  1  0  0  0  0
 13 84  1  0  0  0  0
 13 85  1  0  0  0  0
 14 86  1  0  0  0  0
 14 87  1  0  0  0  0
 14 88  1  0  0  0  0
 16 89  1  0  0  0  0
 16 90  1  0  0  0  0
 18 91  1  0  0  0  0
 18 92  1  0  0  0  0
 18 93  1  0  0  0  0
 19 94  1  0  0  0  0
 19 95  1  0  0  0  0
 19 96  1  0  0  0  0
 20 97  1  0  0  0  0
 20 98  1  0  0  0  0
 23 99  1  0  0  0  0
 24100  1  0  0  0  0
 27101  1  0  0  0  0
 28102  1  0  0  0  0
 30103  1  0  0  0  0
 31104  1  0  0  0  0
 32105  1  0  0  0  0
 32106  1  0  0  0  0
 32107  1  0  0  0  0
 33108  1  0  0  0  0
 33109  1  0  0  0  0
 33110  1  0  0  0  0
 37111  1  0  0  0  0
 37112  1  0  0  0  0
 38113  1  0  0  0  0
 38114  1  0  0  0  0
 45115  1  0  0  0  0
 45116  1  0  0  0  0
 45117  1  0  0  0  0
 46118  1  0  0  0  0
 46119  1  0  0  0  0
 46120  1  0  0  0  0
 47121  1  0  0  0  0
 47122  1  0  0  0  0
 47123  1  0  0  0  0
 48124  1  0  0  0  0
 48125  1  0  0  0  0
 48126  1  0  0  0  0
 50127  1  0  0  0  0
 50128  1  0  0  0  0
 51129  1  0  0  0  0
 51130  1  0  0  0  0
 53131  1  0  0  0  0
 53132  1  0  0  0  0
 53133  1  0  0  0  0
 55134  1  0  0  0  0
 55135  1  0  0  0  0
 56136  1  0  0  0  0
 57137  1  0  0  0  0
 57138  1  0  0  0  0
 59139  1  0  0  0  0
 59140  1  0  0  0  0
 60141  1  0  0  0  0
 60142  1  0  0  0  0
 63143  1  0  0  0  0
 63144  1  0  0  0  0
 64145  1  0  0  0  0
 64146  1  0  0  0  0
 65147  1  0  0  0  0
 65148  1  0  0  0  0
 69149  1  0  0  0  0
 70150  1  0  0  0  0
 72151  1  0  0  0  0
M  END
$$$$
