 xtb: 6.7.1 (edcfbbe)
          08182500033D

151157  0     0  0            999 V2000
    1.7485    6.8225   -8.2709 C   0  0  0  0  0  0  0  0  0  0  0  0
    1.7789    5.3800   -7.7694 C   0  0  0  0  0  0  0  0  0  0  0  0
    3.0593    4.7838   -7.9192 O   0  0  0  0  0  0  0  0  0  0  0  0
    3.9759    5.1104   -6.9085 C   0  0  0  0  0  0  0  0  0  0  0  0
    0.8079    4.5088   -8.5430 C   0  0  0  0  0  0  0  0  0  0  0  0
    0.4694    4.9125   -9.7551 N   0  0  0  0  0  0  0  0  0  0  0  0
   -0.3789    4.1922  -10.4648 C   0  0  0  0  0  0  0  0  0  0  0  0
   -0.9615    3.0269   -9.9933 C   0  0  0  0  0  0  0  0  0  0  0  0
   -0.6156    2.5974   -8.7236 C   0  0  0  0  0  0  0  0  0  0  0  0
    0.3003    3.3311   -7.9756 C   0  0  0  0  0  0  0  0  0  0  0  0
    0.6801    2.9122   -6.6183 C   0  0  0  0  0  0  0  0  0  0  0  0
   -0.1279    3.2321   -5.5497 N   0  0  0  0  0  0  0  0  0  0  0  0
   -1.3832    3.9313   -5.6107 C   0  0  0  0  0  0  0  0  0  0  0  0
   -2.5745    2.9755   -5.5542 C   0  0  0  0  0  0  0  0  0  0  0  0
    1.8034    2.2480   -6.1867 C   0  0  0  0  0  0  0  0  0  0  0  0
    2.9178    1.7493   -7.0495 C   0  0  0  0  0  0  0  0  0  0  0  0
    2.8150    0.2709   -7.4927 C   0  0  0  0  0  0  0  0  0  0  0  0
    3.8335    0.0231   -8.6082 C   0  0  0  0  0  0  0  0  0  0  0  0
    1.4138   -0.0568   -8.0046 C   0  0  0  0  0  0  0  0  0  0  0  0
    3.1225   -0.6634   -6.3180 C   0  0  0  0  0  0  0  0  0  0  0  0
    4.4847   -0.4896   -5.9146 O   0  0  0  0  0  0  0  0  0  0  0  0
    4.8635   -1.1073   -4.8066 C   0  0  0  0  0  0  0  0  0  0  0  0
    6.3090   -0.7952   -4.4475 C   0  0  0  0  0  0  0  0  0  0  0  0
    6.9013   -1.8867   -3.6930 N   0  0  0  0  0  0  0  0  0  0  0  0
    8.0656   -1.4340   -3.0675 N   0  0  0  0  0  0  0  0  0  0  0  0
    8.1188   -0.7818   -1.8825 C   0  0  0  0  0  0  0  0  0  0  0  0
    6.8218   -0.7832   -1.0486 C   0  0  0  0  0  0  0  0  0  0  0  0
    6.9329   -1.7688    0.0022 N   0  0  0  0  0  0  0  0  0  0  0  0
    6.5243   -3.0315   -0.1871 C   0  0  0  0  0  0  0  0  0  0  0  0
    6.5641   -3.8576    1.1021 C   0  0  0  0  0  0  0  0  0  0  0  0
    6.6597   -5.3651    0.8435 C   0  0  0  0  0  0  0  0  0  0  0  0
    6.4723   -6.1475    2.1400 C   0  0  0  0  0  0  0  0  0  0  0  0
    8.0270   -5.6615    0.2291 C   0  0  0  0  0  0  0  0  0  0  0  0
    5.3910   -3.4515    1.8801 N   0  0  0  0  0  0  0  0  0  0  0  0
    5.6003   -2.5203    2.8272 C   0  0  0  0  0  0  0  0  0  0  0  0
    4.4655   -2.0768    3.7620 C   0  0  0  0  0  0  0  0  0  0  0  0
    4.4965   -2.9661    5.0115 C   0  0  0  0  0  0  0  0  0  0  0  0
    3.4772   -2.4667    6.0373 C   0  0  0  0  0  0  0  0  0  0  0  0
    3.7027   -1.0736    6.3379 N   0  0  0  0  0  0  0  0  0  0  0  0
    4.0480   -0.6960    7.5938 C   0  0  0  0  0  0  0  0  0  0  0  0
    4.2783    0.7189    7.7681 C   0  0  0  0  0  0  0  0  0  0  0  0
    4.5131    1.8569    8.0819 C   0  0  0  0  0  0  0  0  0  0  0  0
    4.6878    3.2561    8.4618 C   0  0  0  0  0  0  0  0  0  0  0  0
    5.7611    3.8477    7.6557 N   0  0  0  0  0  0  0  0  0  0  0  0
    5.6496    3.6193    6.2323 C   0  0  0  0  0  0  0  0  0  0  0  0
    6.0315    5.2419    7.9272 C   0  0  0  0  0  0  0  0  0  0  0  0
    5.0940    3.2525    9.9457 C   0  0  0  0  0  0  0  0  0  0  0  0
    3.3141    3.9435    8.2984 C   0  0  0  0  0  0  0  0  0  0  0  0
    4.1333   -1.4759    8.5246 O   0  0  0  0  0  0  0  0  0  0  0  0
    3.6313   -0.1979    5.1965 C   0  0  0  0  0  0  0  0  0  0  0  0
    4.6661   -0.6088    4.1481 C   0  0  0  0  0  0  0  0  0  0  0  0
    6.7162   -2.0702    3.0585 O   0  0  0  0  0  0  0  0  0  0  0  0
    4.0955   -3.8188    1.3468 C   0  0  0  0  0  0  0  0  0  0  0  0
    6.1033   -3.4513   -1.2501 O   0  0  0  0  0  0  0  0  0  0  0  0
    6.5562    0.6136   -0.4838 C   0  0  0  0  0  0  0  0  0  0  0  0
    5.0657    0.9093   -0.2955 C   0  0  0  0  0  0  0  0  0  0  0  0
    4.3106    0.9946   -1.6327 C   0  0  0  0  0  0  0  0  0  0  0  0
    2.9198    1.2925   -1.3655 N   0  0  0  0  0  0  0  0  0  0  0  0
    2.3523    0.2409   -0.5385 C   0  0  0  0  0  0  0  0  0  0  0  0
    3.1340    0.1817    0.7711 C   0  0  0  0  0  0  0  0  0  0  0  0
    4.5009   -0.0805    0.5433 O   0  0  0  0  0  0  0  0  0  0  0  0
    9.1437   -0.2757   -1.4650 O   0  0  0  0  0  0  0  0  0  0  0  0
    9.1042   -1.2452   -4.0640 C   0  0  0  0  0  0  0  0  0  0  0  0
    8.6387   -0.1915   -5.0773 C   0  0  0  0  0  0  0  0  0  0  0  0
    7.2512   -0.5389   -5.6278 C   0  0  0  0  0  0  0  0  0  0  0  0
    4.1417   -1.7759   -4.1123 O   0  0  0  0  0  0  0  0  0  0  0  0
    1.6952    2.1636   -4.7640 C   0  0  0  0  0  0  0  0  0  0  0  0
    0.4711    2.7758   -4.4078 C   0  0  0  0  0  0  0  0  0  0  0  0
    0.0669    2.8624   -3.0809 C   0  0  0  0  0  0  0  0  0  0  0  0
    0.8969    2.3404   -2.1187 C   0  0  0  0  0  0  0  0  0  0  0  0
    2.1263    1.7346   -2.4423 C   0  0  0  0  0  0  0  0  0  0  0  0
    2.5274    1.6538   -3.7644 C   0  0  0  0  0  0  0  0  0  0  0  0
    3.2016   -2.1849    3.1891 F   0  0  0  0  0  0  0  0  0  0  0  0
    2.4312    7.4410   -7.6939 H   0  0  0  0  0  0  0  0  0  0  0  0
    2.0369    6.8426   -9.3169 H   0  0  0  0  0  0  0  0  0  0  0  0
    0.7433    7.2227   -8.1750 H   0  0  0  0  0  0  0  0  0  0  0  0
    1.4984    5.3512   -6.7020 H   0  0  0  0  0  0  0  0  0  0  0  0
    3.5954    4.8182   -5.9210 H   0  0  0  0  0  0  0  0  0  0  0  0
    4.8814    4.5479   -7.1280 H   0  0  0  0  0  0  0  0  0  0  0  0
    4.2138    6.1795   -6.8959 H   0  0  0  0  0  0  0  0  0  0  0  0
   -0.6071    4.5788  -11.4493 H   0  0  0  0  0  0  0  0  0  0  0  0
   -1.6659    2.4747  -10.5957 H   0  0  0  0  0  0  0  0  0  0  0  0
   -1.0494    1.6979   -8.3106 H   0  0  0  0  0  0  0  0  0  0  0  0
   -1.4313    4.6294   -4.7687 H   0  0  0  0  0  0  0  0  0  0  0  0
   -1.4130    4.5101   -6.5386 H   0  0  0  0  0  0  0  0  0  0  0  0
   -2.5266    2.3675   -4.6542 H   0  0  0  0  0  0  0  0  0  0  0  0
   -3.5037    3.5389   -5.5490 H   0  0  0  0  0  0  0  0  0  0  0  0
   -2.5735    2.3153   -6.4177 H   0  0  0  0  0  0  0  0  0  0  0  0
    2.9558    2.3722   -7.9448 H   0  0  0  0  0  0  0  0  0  0  0  0
    3.8628    1.8710   -6.5160 H   0  0  0  0  0  0  0  0  0  0  0  0
    4.8363    0.2646   -8.2671 H   0  0  0  0  0  0  0  0  0  0  0  0
    3.8165   -1.0206   -8.9146 H   0  0  0  0  0  0  0  0  0  0  0  0
    3.6019    0.6410   -9.4722 H   0  0  0  0  0  0  0  0  0  0  0  0
    0.6779    0.0739   -7.2149 H   0  0  0  0  0  0  0  0  0  0  0  0
    1.1625    0.5998   -8.8332 H   0  0  0  0  0  0  0  0  0  0  0  0
    1.3668   -1.0865   -8.3527 H   0  0  0  0  0  0  0  0  0  0  0  0
    2.4662   -0.4556   -5.4670 H   0  0  0  0  0  0  0  0  0  0  0  0
    2.9820   -1.7104   -6.6086 H   0  0  0  0  0  0  0  0  0  0  0  0
    6.2569    0.1345   -3.8406 H   0  0  0  0  0  0  0  0  0  0  0  0
    6.2782   -2.3919   -3.0645 H   0  0  0  0  0  0  0  0  0  0  0  0
    5.9769   -1.1010   -1.6634 H   0  0  0  0  0  0  0  0  0  0  0  0
    7.2603   -1.4727    0.9109 H   0  0  0  0  0  0  0  0  0  0  0  0
    7.4339   -3.5531    1.6935 H   0  0  0  0  0  0  0  0  0  0  0  0
    5.8986   -5.6634    0.1167 H   0  0  0  0  0  0  0  0  0  0  0  0
    5.4777   -5.9975    2.5515 H   0  0  0  0  0  0  0  0  0  0  0  0
    6.6099   -7.2104    1.9579 H   0  0  0  0  0  0  0  0  0  0  0  0
    7.2024   -5.8278    2.8806 H   0  0  0  0  0  0  0  0  0  0  0  0
    8.1188   -6.7237    0.0167 H   0  0  0  0  0  0  0  0  0  0  0  0
    8.1500   -5.1139   -0.7016 H   0  0  0  0  0  0  0  0  0  0  0  0
    8.8252   -5.3755    0.9110 H   0  0  0  0  0  0  0  0  0  0  0  0
    4.2682   -3.9973    4.7369 H   0  0  0  0  0  0  0  0  0  0  0  0
    5.5029   -2.9284    5.4294 H   0  0  0  0  0  0  0  0  0  0  0  0
    2.4642   -2.5875    5.6349 H   0  0  0  0  0  0  0  0  0  0  0  0
    3.5652   -3.0276    6.9698 H   0  0  0  0  0  0  0  0  0  0  0  0
    5.5157    2.5568    6.0416 H   0  0  0  0  0  0  0  0  0  0  0  0
    4.8228    4.1747    5.7611 H   0  0  0  0  0  0  0  0  0  0  0  0
    6.5798    3.9379    5.7621 H   0  0  0  0  0  0  0  0  0  0  0  0
    6.1449    5.4053    8.9948 H   0  0  0  0  0  0  0  0  0  0  0  0
    6.9743    5.5022    7.4446 H   0  0  0  0  0  0  0  0  0  0  0  0
    5.2550    5.9205    7.5409 H   0  0  0  0  0  0  0  0  0  0  0  0
    6.1324    2.9455   10.0369 H   0  0  0  0  0  0  0  0  0  0  0  0
    4.9673    4.2349   10.3931 H   0  0  0  0  0  0  0  0  0  0  0  0
    4.4723    2.5462   10.4907 H   0  0  0  0  0  0  0  0  0  0  0  0
    2.5676    3.4095    8.8809 H   0  0  0  0  0  0  0  0  0  0  0  0
    3.3625    4.9706    8.6519 H   0  0  0  0  0  0  0  0  0  0  0  0
    3.0031    3.9396    7.2559 H   0  0  0  0  0  0  0  0  0  0  0  0
    2.6268   -0.2678    4.7592 H   0  0  0  0  0  0  0  0  0  0  0  0
    3.8030    0.8303    5.5189 H   0  0  0  0  0  0  0  0  0  0  0  0
    5.6769   -0.4967    4.5390 H   0  0  0  0  0  0  0  0  0  0  0  0
    4.5682    0.0076    3.2539 H   0  0  0  0  0  0  0  0  0  0  0  0
    3.4755   -4.2964    2.1055 H   0  0  0  0  0  0  0  0  0  0  0  0
    3.5730   -2.9441    0.9581 H   0  0  0  0  0  0  0  0  0  0  0  0
    4.2423   -4.5114    0.5243 H   0  0  0  0  0  0  0  0  0  0  0  0
    7.0666    0.7070    0.4757 H   0  0  0  0  0  0  0  0  0  0  0  0
    6.9763    1.3655   -1.1541 H   0  0  0  0  0  0  0  0  0  0  0  0
    4.9605    1.8910    0.2009 H   0  0  0  0  0  0  0  0  0  0  0  0
    4.7400    1.8041   -2.2271 H   0  0  0  0  0  0  0  0  0  0  0  0
    4.4082    0.0420   -2.1769 H   0  0  0  0  0  0  0  0  0  0  0  0
    1.3031    0.4500   -0.3343 H   0  0  0  0  0  0  0  0  0  0  0  0
    2.4270   -0.7356   -1.0469 H   0  0  0  0  0  0  0  0  0  0  0  0
    3.0255    1.1435    1.2975 H   0  0  0  0  0  0  0  0  0  0  0  0
    2.7638   -0.6242    1.4049 H   0  0  0  0  0  0  0  0  0  0  0  0
   10.0129   -0.9260   -3.5541 H   0  0  0  0  0  0  0  0  0  0  0  0
    9.2664   -2.2050   -4.5582 H   0  0  0  0  0  0  0  0  0  0  0  0
    8.5977    0.7793   -4.5771 H   0  0  0  0  0  0  0  0  0  0  0  0
    9.3599   -0.1235   -5.8918 H   0  0  0  0  0  0  0  0  0  0  0  0
    7.3069   -1.4480   -6.2272 H   0  0  0  0  0  0  0  0  0  0  0  0
    6.8745    0.2717   -6.2512 H   0  0  0  0  0  0  0  0  0  0  0  0
   -0.8632    3.3355   -2.8035 H   0  0  0  0  0  0  0  0  0  0  0  0
    0.6171    2.4161   -1.0791 H   0  0  0  0  0  0  0  0  0  0  0  0
    3.4719    1.2100   -4.0347 H   0  0  0  0  0  0  0  0  0  0  0  0
  1  2  1  0  0  0  0
  2  3  1  0  0  0  0
  3  4  1  0  0  0  0
  2  5  1  0  0  0  0
  5  6  4  0  0  0  0
  6  7  4  0  0  0  0
  7  8  4  0  0  0  0
  8  9  4  0  0  0  0
  5 10  4  0  0  0  0
  9 10  4  0  0  0  0
 10 11  1  0  0  0  0
 11 12  1  0  0  0  0
 12 13  1  0  0  0  0
 13 14  1  0  0  0  0
 11 15  2  0  0  0  0
 15 16  1  0  0  0  0
 16 17  1  0  0  0  0
 17 18  1  0  0  0  0
 17 19  1  0  0  0  0
 17 20  1  0  0  0  0
 20 21  1  0  0  0  0
 21 22  1  0  0  0  0
 22 23  1  0  0  0  0
 23 24  1  0  0  0  0
 24 25  1  0  0  0  0
 25 26  4  0  0  0  0
 26 27  1  0  0  0  0
 27 28  1  0  0  0  0
 28 29  4  0  0  0  0
 29 30  1  0  0  0  0
 30 31  1  0  0  0  0
 31 32  1  0  0  0  0
 31 33  1  0  0  0  0
 30 34  1  0  0  0  0
 34 35  4  0  0  0  0
 35 36  1  0  0  0  0
 36 37  1  0  0  0  0
 37 38  1  0  0  0  0
 38 39  1  0  0  0  0
 39 40  4  0  0  0  0
 40 41  1  0  0  0  0
 41 42  3  0  0  0  0
 42 43  1  0  0  0  0
 43 44  1  0  0  0  0
 44 45  1  0  0  0  0
 44 46  1  0  0  0  0
 43 47  1  0  0  0  0
 43 48  1  0  0  0  0
 40 49  2  0  0  0  0
 39 50  1  0  0  0  0
 36 51  1  0  0  0  0
 50 51  1  0  0  0  0
 35 52  2  0  0  0  0
 34 53  1  0  0  0  0
 29 54  2  0  0  0  0
 27 55  1  0  0  0  0
 55 56  1  0  0  0  0
 56 57  1  0  0  0  0
 57 58  1  0  0  0  0
 58 59  1  0  0  0  0
 59 60  1  0  0  0  0
 56 61  1  0  0  0  0
 60 61  1  0  0  0  0
 26 62  2  0  0  0  0
 25 63  1  0  0  0  0
 63 64  1  0  0  0  0
 23 65  1  0  0  0  0
 64 65  1  0  0  0  0
 22 66  2  0  0  0  0
 15 67  4  0  0  0  0
 12 68  1  0  0  0  0
 67 68  4  0  0  0  0
 68 69  4  0  0  0  0
 69 70  2  0  0  0  0
 58 71  1  0  0  0  0
 70 71  4  0  0  0  0
 67 72  4  0  0  0  0
 71 72  4  0  0  0  0
 36 73  1  0  0  0  0
  1 74  1  0  0  0  0
  1 75  1  0  0  0  0
  1 76  1  0  0  0  0
  2 77  1  0  0  0  0
  4 78  1  0  0  0  0
  4 79  1  0  0  0  0
  4 80  1  0  0  0  0
  7 81  1  0  0  0  0
  8 82  1  0  0  0  0
  9 83  1  0  0  0  0
 13 84  1  0  0  0  0
 13 85  1  0  0  0  0
 14 86  1  0  0  0  0
 14 87  1  0  0  0  0
 14 88  1  0  0  0  0
 16 89  1  0  0  0  0
 16 90  1  0  0  0  0
 18 91  1  0  0  0  0
 18 92  1  0  0  0  0
 18 93  1  0  0  0  0
 19 94  1  0  0  0  0
 19 95  1  0  0  0  0
 19 96  1  0  0  0  0
 20 97  1  0  0  0  0
 20 98  1  0  0  0  0
 23 99  1  0  0  0  0
 24100  1  0  0  0  0
 27101  1  0  0  0  0
 28102  1  0  0  0  0
 30103  1  0  0  0  0
 31104  1  0  0  0  0
 32105  1  0  0  0  0
 32106  1  0  0  0  0
 32107  1  0  0  0  0
 33108  1  0  0  0  0
 33109  1  0  0  0  0
 33110  1  0  0  0  0
 37111  1  0  0  0  0
 37112  1  0  0  0  0
 38113  1  0  0  0  0
 38114  1  0  0  0  0
 45115  1  0  0  0  0
 45116  1  0  0  0  0
 45117  1  0  0  0  0
 46118  1  0  0  0  0
 46119  1  0  0  0  0
 46120  1  0  0  0  0
 47121  1  0  0  0  0
 47122  1  0  0  0  0
 47123  1  0  0  0  0
 48124  1  0  0  0  0
 48125  1  0  0  0  0
 48126  1  0  0  0  0
 50127  1  0  0  0  0
 50128  1  0  0  0  0
 51129  1  0  0  0  0
 51130  1  0  0  0  0
 53131  1  0  0  0  0
 53132  1  0  0  0  0
 53133  1  0  0  0  0
 55134  1  0  0  0  0
 55135  1  0  0  0  0
 56136  1  0  0  0  0
 57137  1  0  0  0  0
 57138  1  0  0  0  0
 59139  1  0  0  0  0
 59140  1  0  0  0  0
 60141  1  0  0  0  0
 60142  1  0  0  0  0
 63143  1  0  0  0  0
 63144  1  0  0  0  0
 64145  1  0  0  0  0
 64146  1  0  0  0  0
 65147  1  0  0  0  0
 65148  1  0  0  0  0
 69149  1  0  0  0  0
 70150  1  0  0  0  0
 72151  1  0  0  0  0
M  END
$$$$
