obj05
  PyMOL3.1          3D                             0

 37 40  0  0  0  0  0  0  0  0999 V2000
  -15.4807   56.2245    3.7805 C   0  0  0  0  0  0  0  0  0  0  0  0
  -16.0897   55.0605    4.2642 C   0  0  0  0  0  0  0  0  0  0  0  0
  -15.7730   54.6628    5.6708 C   0  0  0  0  0  0  0  0  0  0  0  0
  -14.6883   54.9141    6.1502 O   0  0  0  0  0  0  0  0  0  0  0  0
  -16.7465   54.0267    6.3430 N   0  0  0  0  0  0  0  0  0  0  0  0
  -16.8098   53.7217    7.7021 C   0  0  0  0  0  0  0  0  0  0  0  0
  -15.7044   53.7851    8.5434 C   0  0  0  0  0  0  0  0  0  0  0  0
  -15.8207   53.5224    9.9291 C   0  0  0  0  0  0  0  0  0  0  0  0
  -14.7883   53.5789   10.8416 N   0  0  0  0  0  0  0  0  0  0  0  0
  -13.4706   53.2349   10.6401 C   0  0  0  0  0  0  0  0  0  0  0  0
  -12.6287   53.3341   11.6934 N   0  0  0  0  0  0  0  0  0  0  0  0
  -11.3231   53.0261   11.5224 C   0  0  0  0  0  0  0  0  0  0  0  0
  -10.8475   52.5961   10.2825 C   0  0  0  0  0  0  0  0  0  0  0  0
  -11.7704   52.4849    9.2407 C   0  0  0  0  0  0  0  0  0  0  0  0
  -11.3686   52.0374    7.9013 C   0  0  0  0  0  0  0  0  0  0  0  0
  -10.0998   51.9842    7.4069 C   0  0  0  0  0  0  0  0  0  0  0  0
  -10.1381   51.5639    6.1318 N   0  0  0  0  0  0  0  0  0  0  0  0
   -8.9677   51.3978    5.2736 C   0  0  0  0  0  0  0  0  0  0  0  0
  -11.4411   51.3194    5.7698 C   0  0  0  0  0  0  0  0  0  0  0  0
  -11.9771   50.8709    4.5661 C   0  0  0  0  0  0  0  0  0  0  0  0
  -13.3378   50.7101    4.4761 C   0  0  0  0  0  0  0  0  0  0  0  0
  -14.1681   50.9787    5.5527 C   0  0  0  0  0  0  0  0  0  0  0  0
  -13.6437   51.4248    6.7671 C   0  0  0  0  0  0  0  0  0  0  0  0
  -12.2466   51.6012    6.8672 C   0  0  0  0  0  0  0  0  0  0  0  0
  -13.0665   52.8070    9.4291 N   0  0  0  0  0  0  0  0  0  0  0  0
  -17.0957   53.2176   10.4435 C   0  0  0  0  0  0  0  0  0  0  0  0
  -17.1904   53.0200   11.7819 O   0  0  0  0  0  0  0  0  0  0  0  0
  -18.4754   52.7448   12.3178 C   0  0  0  0  0  0  0  0  0  0  0  0
  -18.1746   53.1305    9.5919 C   0  0  0  0  0  0  0  0  0  0  0  0
  -18.0626   53.3531    8.2336 C   0  0  0  0  0  0  0  0  0  0  0  0
  -19.1948   53.2179    7.3617 N   0  0  0  0  0  0  0  0  0  0  0  0
  -19.3423   51.9014    6.7181 C   0  0  0  0  0  0  0  0  0  0  0  0
  -20.4077   53.9187    7.8491 C   0  0  0  0  0  0  0  0  0  0  0  0
  -20.2366   55.3482    7.5643 C   0  0  0  0  0  0  0  0  0  0  0  0
  -21.4799   56.1763    7.5405 N   0  0  0  0  0  0  0  0  0  0  0  0
  -22.5340   55.5854    8.3272 C   0  0  0  0  0  0  0  0  0  0  0  0
  -21.1661   57.5406    7.9658 C   0  0  0  0  0  0  0  0  0  0  0  0
  1  2  1  0  0  0  0
  2  3  1  0  0  0  0
  3  4  2  0  0  0  0
  3  5  1  0  0  0  0
  5  6  1  0  0  0  0
  6  7  4  0  0  0  0
  6 30  4  0  0  0  0
  7  8  4  0  0  0  0
  8  9  1  0  0  0  0
  8 26  4  0  0  0  0
  9 10  1  0  0  0  0
 10 11  4  0  0  0  0
 10 25  4  0  0  0  0
 11 12  4  0  0  0  0
 12 13  4  0  0  0  0
 13 14  4  0  0  0  0
 14 15  1  0  0  0  0
 14 25  4  0  0  0  0
 15 16  4  0  0  0  0
 15 24  4  0  0  0  0
 16 17  4  0  0  0  0
 17 18  1  0  0  0  0
 17 19  4  0  0  0  0
 19 20  4  0  0  0  0
 19 24  4  0  0  0  0
 20 21  4  0  0  0  0
 21 22  4  0  0  0  0
 22 23  4  0  0  0  0
 23 24  4  0  0  0  0
 26 27  1  0  0  0  0
 26 29  4  0  0  0  0
 27 28  1  0  0  0  0
 29 30  4  0  0  0  0
 30 31  1  0  0  0  0
 31 32  1  0  0  0  0
 31 33  1  0  0  0  0
 33 34  1  0  0  0  0
 34 35  1  0  0  0  0
 35 36  1  0  0  0  0
 35 37  1  0  0  0  0
M  END
$$$$
