obj04
  PyMOL3.1          3D                             0

 37 40  0  0  0  0  0  0  0  0999 V2000
  -15.4555   56.1892    3.7146 C   0  0  0  0  0  0  0  0  0  0  0  0
  -16.0205   54.9922    4.1452 C   0  0  0  0  0  0  0  0  0  0  0  0
  -15.6700   54.5096    5.5215 C   0  0  0  0  0  0  0  0  0  0  0  0
  -14.5503   54.6368    5.9425 O   0  0  0  0  0  0  0  0  0  0  0  0
  -16.6522   53.9367    6.2128 N   0  0  0  0  0  0  0  0  0  0  0  0
  -16.7075   53.6040    7.5647 C   0  0  0  0  0  0  0  0  0  0  0  0
  -15.6059   53.6877    8.4221 C   0  0  0  0  0  0  0  0  0  0  0  0
  -15.7291   53.4050    9.7978 C   0  0  0  0  0  0  0  0  0  0  0  0
  -14.6945   53.4687   10.7303 N   0  0  0  0  0  0  0  0  0  0  0  0
  -13.3858   53.1150   10.5500 C   0  0  0  0  0  0  0  0  0  0  0  0
  -12.5504   53.1876   11.6075 N   0  0  0  0  0  0  0  0  0  0  0  0
  -11.2672   52.8587   11.4267 C   0  0  0  0  0  0  0  0  0  0  0  0
  -10.8167   52.4445   10.1935 C   0  0  0  0  0  0  0  0  0  0  0  0
  -11.7109   52.3618    9.1609 C   0  0  0  0  0  0  0  0  0  0  0  0
  -11.3528   51.9224    7.8125 C   0  0  0  0  0  0  0  0  0  0  0  0
  -12.2379   51.7886    6.7917 C   0  0  0  0  0  0  0  0  0  0  0  0
  -11.6246   51.3933    5.6921 N   0  0  0  0  0  0  0  0  0  0  0  0
  -12.2729   51.1563    4.4216 C   0  0  0  0  0  0  0  0  0  0  0  0
  -10.3104   51.2423    5.9525 C   0  0  0  0  0  0  0  0  0  0  0  0
   -9.2878   50.8458    5.1274 C   0  0  0  0  0  0  0  0  0  0  0  0
   -8.0215   50.7627    5.6666 C   0  0  0  0  0  0  0  0  0  0  0  0
   -7.7809   51.0608    6.9860 C   0  0  0  0  0  0  0  0  0  0  0  0
   -8.8279   51.4648    7.8090 C   0  0  0  0  0  0  0  0  0  0  0  0
  -10.1201   51.5571    7.2750 C   0  0  0  0  0  0  0  0  0  0  0  0
  -12.9960   52.7020    9.3452 N   0  0  0  0  0  0  0  0  0  0  0  0
  -16.9884   53.0725   10.2920 C   0  0  0  0  0  0  0  0  0  0  0  0
  -17.0871   52.8665   11.6325 O   0  0  0  0  0  0  0  0  0  0  0  0
  -18.3789   52.6184   12.1691 C   0  0  0  0  0  0  0  0  0  0  0  0
  -18.0573   52.9616    9.4285 C   0  0  0  0  0  0  0  0  0  0  0  0
  -17.9374   53.1982    8.0654 C   0  0  0  0  0  0  0  0  0  0  0  0
  -19.0375   52.9729    7.1695 N   0  0  0  0  0  0  0  0  0  0  0  0
  -19.9363   51.8689    7.5171 C   0  0  0  0  0  0  0  0  0  0  0  0
  -19.6487   54.1397    6.5606 C   0  0  0  0  0  0  0  0  0  0  0  0
  -20.6153   54.7802    7.5617 C   0  0  0  0  0  0  0  0  0  0  0  0
  -21.4201   55.8528    6.9115 N   0  0  0  0  0  0  0  0  0  0  0  0
  -22.7307   55.3582    6.5465 C   0  0  0  0  0  0  0  0  0  0  0  0
  -21.4594   57.0441    7.7402 C   0  0  0  0  0  0  0  0  0  0  0  0
  1  2  1  0  0  0  0
  2  3  1  0  0  0  0
  3  4  2  0  0  0  0
  3  5  1  0  0  0  0
  5  6  1  0  0  0  0
  6  7  4  0  0  0  0
  6 30  4  0  0  0  0
  7  8  4  0  0  0  0
  8  9  1  0  0  0  0
  8 26  4  0  0  0  0
  9 10  1  0  0  0  0
 10 11  4  0  0  0  0
 10 25  4  0  0  0  0
 11 12  4  0  0  0  0
 12 13  4  0  0  0  0
 13 14  4  0  0  0  0
 14 15  1  0  0  0  0
 14 25  4  0  0  0  0
 15 16  4  0  0  0  0
 15 24  4  0  0  0  0
 16 17  4  0  0  0  0
 17 18  1  0  0  0  0
 17 19  4  0  0  0  0
 19 20  4  0  0  0  0
 19 24  4  0  0  0  0
 20 21  4  0  0  0  0
 21 22  4  0  0  0  0
 22 23  4  0  0  0  0
 23 24  4  0  0  0  0
 26 27  1  0  0  0  0
 26 29  4  0  0  0  0
 27 28  1  0  0  0  0
 29 30  4  0  0  0  0
 30 31  1  0  0  0  0
 31 32  1  0  0  0  0
 31 33  1  0  0  0  0
 33 34  1  0  0  0  0
 34 35  1  0  0  0  0
 35 36  1  0  0  0  0
 35 37  1  0  0  0  0
M  END
$$$$
