 xtb: 6.7.1 (edcfbbe)
          08232517363D

151157  0     0  0            999 V2000
   -2.0163    5.6643    1.9371 C   0  0  0  0  0  0  0  0  0  0  0  0
   -0.6885    6.2377    1.4265 C   0  0  0  0  0  0  0  0  0  0  0  0
   -0.3714    5.7697    0.1257 O   0  0  0  0  0  0  0  0  0  0  0  0
   -0.8727    6.5734   -0.9081 C   0  0  0  0  0  0  0  0  0  0  0  0
    0.4187    5.9150    2.4059 C   0  0  0  0  0  0  0  0  0  0  0  0
    0.7416    6.9482    3.1745 N   0  0  0  0  0  0  0  0  0  0  0  0
    1.6246    6.8004    4.1430 C   0  0  0  0  0  0  0  0  0  0  0  0
    2.2378    5.5899    4.4200 C   0  0  0  0  0  0  0  0  0  0  0  0
    1.9191    4.5132    3.6146 C   0  0  0  0  0  0  0  0  0  0  0  0
    1.0075    4.6553    2.5669 C   0  0  0  0  0  0  0  0  0  0  0  0
    0.7270    3.4714    1.7406 C   0  0  0  0  0  0  0  0  0  0  0  0
   -0.0147    2.4384    2.2697 N   0  0  0  0  0  0  0  0  0  0  0  0
   -0.6886    2.4258    3.5417 C   0  0  0  0  0  0  0  0  0  0  0  0
    0.0146    1.5236    4.5553 C   0  0  0  0  0  0  0  0  0  0  0  0
    1.2076    3.1252    0.4972 C   0  0  0  0  0  0  0  0  0  0  0  0
    2.0164    3.9353   -0.4672 C   0  0  0  0  0  0  0  0  0  0  0  0
    3.5541    3.8360   -0.3473 C   0  0  0  0  0  0  0  0  0  0  0  0
    4.0058    4.2689    1.0481 C   0  0  0  0  0  0  0  0  0  0  0  0
    4.1797    4.7679   -1.3883 C   0  0  0  0  0  0  0  0  0  0  0  0
    4.0525    2.3903   -0.5547 C   0  0  0  0  0  0  0  0  0  0  0  0
    4.2849    2.0130   -1.9197 O   0  0  0  0  0  0  0  0  0  0  0  0
    5.5458    2.0552   -2.3428 C   0  0  0  0  0  0  0  0  0  0  0  0
    5.7014    1.4313   -3.7254 C   0  0  0  0  0  0  0  0  0  0  0  0
    4.7925    1.9797   -4.7219 N   0  0  0  0  0  0  0  0  0  0  0  0
    4.8360    1.1840   -5.8735 N   0  0  0  0  0  0  0  0  0  0  0  0
    4.1056    0.0681   -6.0988 C   0  0  0  0  0  0  0  0  0  0  0  0
    2.9681   -0.2090   -5.0970 C   0  0  0  0  0  0  0  0  0  0  0  0
    1.7151    0.2141   -5.6901 N   0  0  0  0  0  0  0  0  0  0  0  0
    1.2711    1.4713   -5.5647 C   0  0  0  0  0  0  0  0  0  0  0  0
   -0.0526    1.7629   -6.2762 C   0  0  0  0  0  0  0  0  0  0  0  0
    0.1852    2.4384   -7.6364 C   0  0  0  0  0  0  0  0  0  0  0  0
    1.1232    1.5845   -8.4892 C   0  0  0  0  0  0  0  0  0  0  0  0
   -1.1454    2.6258   -8.3637 C   0  0  0  0  0  0  0  0  0  0  0  0
   -0.9029    2.5320   -5.3649 N   0  0  0  0  0  0  0  0  0  0  0  0
   -1.6721    1.7914   -4.5469 C   0  0  0  0  0  0  0  0  0  0  0  0
   -2.5172    2.4630   -3.4497 C   0  0  0  0  0  0  0  0  0  0  0  0
   -1.6489    2.8823   -2.2601 C   0  0  0  0  0  0  0  0  0  0  0  0
   -2.5223    3.4703   -1.1514 C   0  0  0  0  0  0  0  0  0  0  0  0
   -3.5115    2.5013   -0.7484 N   0  0  0  0  0  0  0  0  0  0  0  0
   -3.5314    2.0190    0.5123 C   0  0  0  0  0  0  0  0  0  0  0  0
   -4.3866    0.8780    0.7278 C   0  0  0  0  0  0  0  0  0  0  0  0
   -4.9709   -0.1147    1.0771 C   0  0  0  0  0  0  0  0  0  0  0  0
   -5.6770   -1.3612    1.3609 C   0  0  0  0  0  0  0  0  0  0  0  0
   -6.3670   -1.2202    2.6457 N   0  0  0  0  0  0  0  0  0  0  0  0
   -7.0598   -2.4008    3.1104 C   0  0  0  0  0  0  0  0  0  0  0  0
   -7.2234   -0.0571    2.7375 C   0  0  0  0  0  0  0  0  0  0  0  0
   -6.6022   -1.6703    0.1643 C   0  0  0  0  0  0  0  0  0  0  0  0
   -4.5863   -2.4424    1.4661 C   0  0  0  0  0  0  0  0  0  0  0  0
   -2.8705    2.4915    1.4224 O   0  0  0  0  0  0  0  0  0  0  0  0
   -4.3873    2.0760   -1.8103 C   0  0  0  0  0  0  0  0  0  0  0  0
   -3.5908    1.4810   -2.9701 C   0  0  0  0  0  0  0  0  0  0  0  0
   -1.7151    0.5713   -4.6393 O   0  0  0  0  0  0  0  0  0  0  0  0
   -0.6304    3.9481   -5.2456 C   0  0  0  0  0  0  0  0  0  0  0  0
    1.8731    2.3184   -4.9203 O   0  0  0  0  0  0  0  0  0  0  0  0
    2.9260   -1.6900   -4.7273 C   0  0  0  0  0  0  0  0  0  0  0  0
    1.8165   -2.0464   -3.7250 C   0  0  0  0  0  0  0  0  0  0  0  0
    1.5152   -0.8990   -2.7584 C   0  0  0  0  0  0  0  0  0  0  0  0
    0.4701   -1.2647   -1.8236 N   0  0  0  0  0  0  0  0  0  0  0  0
   -0.7208   -1.6703   -2.5612 C   0  0  0  0  0  0  0  0  0  0  0  0
   -0.3647   -2.7900   -3.5388 C   0  0  0  0  0  0  0  0  0  0  0  0
    0.6463   -2.3964   -4.4387 O   0  0  0  0  0  0  0  0  0  0  0  0
    4.2727   -0.6335   -7.0796 O   0  0  0  0  0  0  0  0  0  0  0  0
    6.0977    1.3836   -6.5633 C   0  0  0  0  0  0  0  0  0  0  0  0
    7.2354    0.9364   -5.6397 C   0  0  0  0  0  0  0  0  0  0  0  0
    7.1160    1.6289   -4.2815 C   0  0  0  0  0  0  0  0  0  0  0  0
    6.4783    2.4424   -1.6892 O   0  0  0  0  0  0  0  0  0  0  0  0
    0.7095    1.8140    0.2400 C   0  0  0  0  0  0  0  0  0  0  0  0
   -0.0601    1.4243    1.3577 C   0  0  0  0  0  0  0  0  0  0  0  0
   -0.7040    0.1905    1.3770 C   0  0  0  0  0  0  0  0  0  0  0  0
   -0.5334   -0.6520    0.3021 C   0  0  0  0  0  0  0  0  0  0  0  0
    0.2582   -0.2991   -0.8077 C   0  0  0  0  0  0  0  0  0  0  0  0
    0.8566    0.9489   -0.8446 C   0  0  0  0  0  0  0  0  0  0  0  0
   -3.1736    3.5835   -3.9679 F   0  0  0  0  0  0  0  0  0  0  0  0
   -2.1885    6.0010    2.9560 H   0  0  0  0  0  0  0  0  0  0  0  0
   -2.8382    6.0120    1.3150 H   0  0  0  0  0  0  0  0  0  0  0  0
   -2.0004    4.5778    1.9152 H   0  0  0  0  0  0  0  0  0  0  0  0
   -0.7603    7.3360    1.4107 H   0  0  0  0  0  0  0  0  0  0  0  0
   -0.4883    7.5989   -0.8373 H   0  0  0  0  0  0  0  0  0  0  0  0
   -0.5285    6.1262   -1.8392 H   0  0  0  0  0  0  0  0  0  0  0  0
   -1.9679    6.6110   -0.9085 H   0  0  0  0  0  0  0  0  0  0  0  0
    1.8364    7.6906    4.7207 H   0  0  0  0  0  0  0  0  0  0  0  0
    2.9415    5.4933    5.2320 H   0  0  0  0  0  0  0  0  0  0  0  0
    2.3786    3.5501    3.7872 H   0  0  0  0  0  0  0  0  0  0  0  0
   -0.7312    3.4494    3.9217 H   0  0  0  0  0  0  0  0  0  0  0  0
   -1.7116    2.0775    3.3765 H   0  0  0  0  0  0  0  0  0  0  0  0
   -0.5628    1.4846    5.4753 H   0  0  0  0  0  0  0  0  0  0  0  0
    0.1135    0.5153    4.1616 H   0  0  0  0  0  0  0  0  0  0  0  0
    1.0078    1.9005    4.7877 H   0  0  0  0  0  0  0  0  0  0  0  0
    1.7403    3.6273   -1.4784 H   0  0  0  0  0  0  0  0  0  0  0  0
    1.7407    4.9832   -0.3480 H   0  0  0  0  0  0  0  0  0  0  0  0
    3.6819    3.5446    1.7899 H   0  0  0  0  0  0  0  0  0  0  0  0
    5.0902    4.3466    1.0892 H   0  0  0  0  0  0  0  0  0  0  0  0
    3.5797    5.2368    1.2992 H   0  0  0  0  0  0  0  0  0  0  0  0
    3.8954    5.7967   -1.1801 H   0  0  0  0  0  0  0  0  0  0  0  0
    5.2648    4.6977   -1.3608 H   0  0  0  0  0  0  0  0  0  0  0  0
    3.8408    4.5132   -2.3906 H   0  0  0  0  0  0  0  0  0  0  0  0
    4.9982    2.2579   -0.0195 H   0  0  0  0  0  0  0  0  0  0  0  0
    3.3143    1.6819   -0.1738 H   0  0  0  0  0  0  0  0  0  0  0  0
    5.5227    0.3468   -3.5708 H   0  0  0  0  0  0  0  0  0  0  0  0
    3.8385    2.1563   -4.4134 H   0  0  0  0  0  0  0  0  0  0  0  0
    3.1239    0.3863   -4.1944 H   0  0  0  0  0  0  0  0  0  0  0  0
    1.1714   -0.4960   -6.1555 H   0  0  0  0  0  0  0  0  0  0  0  0
   -0.5756    0.8157   -6.4457 H   0  0  0  0  0  0  0  0  0  0  0  0
    0.6642    3.4082   -7.4767 H   0  0  0  0  0  0  0  0  0  0  0  0
    2.1071    1.4959   -8.0357 H   0  0  0  0  0  0  0  0  0  0  0  0
    0.7158    0.5856   -8.6305 H   0  0  0  0  0  0  0  0  0  0  0  0
    1.2440    2.0420   -9.4682 H   0  0  0  0  0  0  0  0  0  0  0  0
   -1.8637    3.1691   -7.7554 H   0  0  0  0  0  0  0  0  0  0  0  0
   -0.9928    3.1748   -9.2899 H   0  0  0  0  0  0  0  0  0  0  0  0
   -1.5762    1.6568   -8.6068 H   0  0  0  0  0  0  0  0  0  0  0  0
   -1.1322    1.9963   -1.8856 H   0  0  0  0  0  0  0  0  0  0  0  0
   -0.8963    3.6139   -2.5488 H   0  0  0  0  0  0  0  0  0  0  0  0
   -1.9031    3.7249   -0.2909 H   0  0  0  0  0  0  0  0  0  0  0  0
   -3.0269    4.3715   -1.5188 H   0  0  0  0  0  0  0  0  0  0  0  0
   -7.3651   -2.2252    4.1423 H   0  0  0  0  0  0  0  0  0  0  0  0
   -7.9635   -2.6365    2.5268 H   0  0  0  0  0  0  0  0  0  0  0  0
   -6.3960   -3.2607    3.0985 H   0  0  0  0  0  0  0  0  0  0  0  0
   -7.4837    0.0943    3.7853 H   0  0  0  0  0  0  0  0  0  0  0  0
   -6.6863    0.8211    2.3849 H   0  0  0  0  0  0  0  0  0  0  0  0
   -8.1592   -0.1580    2.1653 H   0  0  0  0  0  0  0  0  0  0  0  0
   -7.1134   -2.6174    0.3185 H   0  0  0  0  0  0  0  0  0  0  0  0
   -7.3427   -0.8836    0.0378 H   0  0  0  0  0  0  0  0  0  0  0  0
   -6.0126   -1.7384   -0.7467 H   0  0  0  0  0  0  0  0  0  0  0  0
   -4.0541   -2.3313    2.4069 H   0  0  0  0  0  0  0  0  0  0  0  0
   -5.0151   -3.4394    1.4080 H   0  0  0  0  0  0  0  0  0  0  0  0
   -3.8786   -2.3263    0.6485 H   0  0  0  0  0  0  0  0  0  0  0  0
   -5.0948    1.3404   -1.4234 H   0  0  0  0  0  0  0  0  0  0  0  0
   -4.9464    2.9498   -2.1706 H   0  0  0  0  0  0  0  0  0  0  0  0
   -4.2587    1.2453   -3.7995 H   0  0  0  0  0  0  0  0  0  0  0  0
   -3.0961    0.5627   -2.6558 H   0  0  0  0  0  0  0  0  0  0  0  0
   -1.2685    4.4120   -4.5050 H   0  0  0  0  0  0  0  0  0  0  0  0
    0.4159    4.0882   -4.9664 H   0  0  0  0  0  0  0  0  0  0  0  0
   -0.8159    4.4444   -6.1981 H   0  0  0  0  0  0  0  0  0  0  0  0
    2.7775   -2.2803   -5.6332 H   0  0  0  0  0  0  0  0  0  0  0  0
    3.8936   -1.9624   -4.3029 H   0  0  0  0  0  0  0  0  0  0  0  0
    2.1346   -2.9245   -3.1355 H   0  0  0  0  0  0  0  0  0  0  0  0
    2.4181   -0.6592   -2.1920 H   0  0  0  0  0  0  0  0  0  0  0  0
    1.1931   -0.0290   -3.3478 H   0  0  0  0  0  0  0  0  0  0  0  0
   -1.4804   -2.0221   -1.8626 H   0  0  0  0  0  0  0  0  0  0  0  0
   -1.1258   -0.8307   -3.1461 H   0  0  0  0  0  0  0  0  0  0  0  0
   -0.0318   -3.6789   -2.9803 H   0  0  0  0  0  0  0  0  0  0  0  0
   -1.2323   -3.0440   -4.1493 H   0  0  0  0  0  0  0  0  0  0  0  0
    6.0791    0.7990   -7.4829 H   0  0  0  0  0  0  0  0  0  0  0  0
    6.1861    2.4472   -6.7930 H   0  0  0  0  0  0  0  0  0  0  0  0
    7.1738   -0.1465   -5.5070 H   0  0  0  0  0  0  0  0  0  0  0  0
    8.1960    1.1692   -6.0985 H   0  0  0  0  0  0  0  0  0  0  0  0
    7.2868    2.7001   -4.3926 H   0  0  0  0  0  0  0  0  0  0  0  0
    7.8503    1.2367   -3.5787 H   0  0  0  0  0  0  0  0  0  0  0  0
   -1.3275   -0.1053    2.2065 H   0  0  0  0  0  0  0  0  0  0  0  0
   -1.0012   -1.6250    0.3139 H   0  0  0  0  0  0  0  0  0  0  0  0
    1.4389    1.2824   -1.6876 H   0  0  0  0  0  0  0  0  0  0  0  0
  1  2  1  0  0  0  0
  2  3  1  0  0  0  0
  3  4  1  0  0  0  0
  2  5  1  0  0  0  0
  5  6  4  0  0  0  0
  6  7  4  0  0  0  0
  7  8  4  0  0  0  0
  8  9  4  0  0  0  0
  5 10  4  0  0  0  0
  9 10  4  0  0  0  0
 10 11  1  0  0  0  0
 11 12  1  0  0  0  0
 12 13  1  0  0  0  0
 13 14  1  0  0  0  0
 11 15  2  0  0  0  0
 15 16  1  0  0  0  0
 16 17  1  0  0  0  0
 17 18  1  0  0  0  0
 17 19  1  0  0  0  0
 17 20  1  0  0  0  0
 20 21  1  0  0  0  0
 21 22  1  0  0  0  0
 22 23  1  0  0  0  0
 23 24  1  0  0  0  0
 24 25  1  0  0  0  0
 25 26  4  0  0  0  0
 26 27  1  0  0  0  0
 27 28  1  0  0  0  0
 28 29  4  0  0  0  0
 29 30  1  0  0  0  0
 30 31  1  0  0  0  0
 31 32  1  0  0  0  0
 31 33  1  0  0  0  0
 30 34  1  0  0  0  0
 34 35  4  0  0  0  0
 35 36  1  0  0  0  0
 36 37  1  0  0  0  0
 37 38  1  0  0  0  0
 38 39  1  0  0  0  0
 39 40  4  0  0  0  0
 40 41  1  0  0  0  0
 41 42  3  0  0  0  0
 42 43  1  0  0  0  0
 43 44  1  0  0  0  0
 44 45  1  0  0  0  0
 44 46  1  0  0  0  0
 43 47  1  0  0  0  0
 43 48  1  0  0  0  0
 40 49  2  0  0  0  0
 39 50  1  0  0  0  0
 36 51  1  0  0  0  0
 50 51  1  0  0  0  0
 35 52  2  0  0  0  0
 34 53  1  0  0  0  0
 29 54  2  0  0  0  0
 27 55  1  0  0  0  0
 55 56  1  0  0  0  0
 56 57  1  0  0  0  0
 57 58  1  0  0  0  0
 58 59  1  0  0  0  0
 59 60  1  0  0  0  0
 56 61  1  0  0  0  0
 60 61  1  0  0  0  0
 26 62  2  0  0  0  0
 25 63  1  0  0  0  0
 63 64  1  0  0  0  0
 23 65  1  0  0  0  0
 64 65  1  0  0  0  0
 22 66  2  0  0  0  0
 15 67  4  0  0  0  0
 12 68  1  0  0  0  0
 67 68  4  0  0  0  0
 68 69  4  0  0  0  0
 69 70  2  0  0  0  0
 58 71  1  0  0  0  0
 70 71  4  0  0  0  0
 67 72  4  0  0  0  0
 71 72  4  0  0  0  0
 36 73  1  0  0  0  0
  1 74  1  0  0  0  0
  1 75  1  0  0  0  0
  1 76  1  0  0  0  0
  2 77  1  0  0  0  0
  4 78  1  0  0  0  0
  4 79  1  0  0  0  0
  4 80  1  0  0  0  0
  7 81  1  0  0  0  0
  8 82  1  0  0  0  0
  9 83  1  0  0  0  0
 13 84  1  0  0  0  0
 13 85  1  0  0  0  0
 14 86  1  0  0  0  0
 14 87  1  0  0  0  0
 14 88  1  0  0  0  0
 16 89  1  0  0  0  0
 16 90  1  0  0  0  0
 18 91  1  0  0  0  0
 18 92  1  0  0  0  0
 18 93  1  0  0  0  0
 19 94  1  0  0  0  0
 19 95  1  0  0  0  0
 19 96  1  0  0  0  0
 20 97  1  0  0  0  0
 20 98  1  0  0  0  0
 23 99  1  0  0  0  0
 24100  1  0  0  0  0
 27101  1  0  0  0  0
 28102  1  0  0  0  0
 30103  1  0  0  0  0
 31104  1  0  0  0  0
 32105  1  0  0  0  0
 32106  1  0  0  0  0
 32107  1  0  0  0  0
 33108  1  0  0  0  0
 33109  1  0  0  0  0
 33110  1  0  0  0  0
 37111  1  0  0  0  0
 37112  1  0  0  0  0
 38113  1  0  0  0  0
 38114  1  0  0  0  0
 45115  1  0  0  0  0
 45116  1  0  0  0  0
 45117  1  0  0  0  0
 46118  1  0  0  0  0
 46119  1  0  0  0  0
 46120  1  0  0  0  0
 47121  1  0  0  0  0
 47122  1  0  0  0  0
 47123  1  0  0  0  0
 48124  1  0  0  0  0
 48125  1  0  0  0  0
 48126  1  0  0  0  0
 50127  1  0  0  0  0
 50128  1  0  0  0  0
 51129  1  0  0  0  0
 51130  1  0  0  0  0
 53131  1  0  0  0  0
 53132  1  0  0  0  0
 53133  1  0  0  0  0
 55134  1  0  0  0  0
 55135  1  0  0  0  0
 56136  1  0  0  0  0
 57137  1  0  0  0  0
 57138  1  0  0  0  0
 59139  1  0  0  0  0
 59140  1  0  0  0  0
 60141  1  0  0  0  0
 60142  1  0  0  0  0
 63143  1  0  0  0  0
 63144  1  0  0  0  0
 64145  1  0  0  0  0
 64146  1  0  0  0  0
 65147  1  0  0  0  0
 65148  1  0  0  0  0
 69149  1  0  0  0  0
 70150  1  0  0  0  0
 72151  1  0  0  0  0
M  END
$$$$
