 xtb: 6.7.1 (edcfbbe)
          08172521173D

151157  0     0  0            999 V2000
    1.6599    7.0142   -8.0375 C   0  0  0  0  0  0  0  0  0  0  0  0
    1.8558    5.5233   -7.7554 C   0  0  0  0  0  0  0  0  0  0  0  0
    3.0698    5.0189   -8.2918 O   0  0  0  0  0  0  0  0  0  0  0  0
    4.2270    5.4275   -7.6103 C   0  0  0  0  0  0  0  0  0  0  0  0
    0.7453    4.7184   -8.4007 C   0  0  0  0  0  0  0  0  0  0  0  0
    0.3999    5.0873   -9.6234 N   0  0  0  0  0  0  0  0  0  0  0  0
   -0.5596    4.4383  -10.2528 C   0  0  0  0  0  0  0  0  0  0  0  0
   -1.2543    3.3803   -9.6865 C   0  0  0  0  0  0  0  0  0  0  0  0
   -0.9056    2.9905   -8.4065 C   0  0  0  0  0  0  0  0  0  0  0  0
    0.1237    3.6525   -7.7369 C   0  0  0  0  0  0  0  0  0  0  0  0
    0.4879    3.2454   -6.3750 C   0  0  0  0  0  0  0  0  0  0  0  0
   -0.3859    3.4540   -5.3295 N   0  0  0  0  0  0  0  0  0  0  0  0
   -1.6028    4.2190   -5.3832 C   0  0  0  0  0  0  0  0  0  0  0  0
   -1.3479    5.6996   -5.1019 C   0  0  0  0  0  0  0  0  0  0  0  0
    1.6262    2.6158   -5.9266 C   0  0  0  0  0  0  0  0  0  0  0  0
    2.7760    2.1774   -6.7748 C   0  0  0  0  0  0  0  0  0  0  0  0
    2.7009    0.7215   -7.2929 C   0  0  0  0  0  0  0  0  0  0  0  0
    3.7424    0.5454   -8.4006 C   0  0  0  0  0  0  0  0  0  0  0  0
    1.3134    0.4023   -7.8471 C   0  0  0  0  0  0  0  0  0  0  0  0
    3.0004   -0.2662   -6.1602 C   0  0  0  0  0  0  0  0  0  0  0  0
    4.3514   -0.0906   -5.7218 O   0  0  0  0  0  0  0  0  0  0  0  0
    4.7020   -0.6905   -4.5959 C   0  0  0  0  0  0  0  0  0  0  0  0
    6.1332   -0.3611   -4.1964 C   0  0  0  0  0  0  0  0  0  0  0  0
    6.7350   -1.4671   -3.4702 N   0  0  0  0  0  0  0  0  0  0  0  0
    7.8726   -1.0095   -2.8002 N   0  0  0  0  0  0  0  0  0  0  0  0
    7.8807   -0.4011   -1.5909 C   0  0  0  0  0  0  0  0  0  0  0  0
    6.5663   -0.4729   -0.7879 C   0  0  0  0  0  0  0  0  0  0  0  0
    6.6779   -1.5054    0.2168 N   0  0  0  0  0  0  0  0  0  0  0  0
    6.2919   -2.7639   -0.0373 C   0  0  0  0  0  0  0  0  0  0  0  0
    6.3176   -3.6462    1.2138 C   0  0  0  0  0  0  0  0  0  0  0  0
    6.4188   -5.1411    0.8918 C   0  0  0  0  0  0  0  0  0  0  0  0
    6.2083   -5.9794    2.1492 C   0  0  0  0  0  0  0  0  0  0  0  0
    7.7970   -5.4110    0.2900 C   0  0  0  0  0  0  0  0  0  0  0  0
    5.1317   -3.2775    1.9908 N   0  0  0  0  0  0  0  0  0  0  0  0
    5.3252   -2.3958    2.9871 C   0  0  0  0  0  0  0  0  0  0  0  0
    4.1814   -2.0086    3.9349 C   0  0  0  0  0  0  0  0  0  0  0  0
    4.2400   -2.9379    5.1542 C   0  0  0  0  0  0  0  0  0  0  0  0
    3.2170   -2.4969    6.2026 C   0  0  0  0  0  0  0  0  0  0  0  0
    3.4106   -1.1092    6.5476 N   0  0  0  0  0  0  0  0  0  0  0  0
    3.7541   -0.7645    7.8139 C   0  0  0  0  0  0  0  0  0  0  0  0
    3.9362    0.6516    8.0304 C   0  0  0  0  0  0  0  0  0  0  0  0
    4.1243    1.7934    8.3608 C   0  0  0  0  0  0  0  0  0  0  0  0
    4.2347    3.1993    8.7401 C   0  0  0  0  0  0  0  0  0  0  0  0
    5.4048    3.7879    8.0799 N   0  0  0  0  0  0  0  0  0  0  0  0
    5.5057    3.5173    6.6629 C   0  0  0  0  0  0  0  0  0  0  0  0
    5.6121    5.1940    8.3464 C   0  0  0  0  0  0  0  0  0  0  0  0
    2.8918    3.8709    8.3760 C   0  0  0  0  0  0  0  0  0  0  0  0
    4.4328    3.2243   10.2655 C   0  0  0  0  0  0  0  0  0  0  0  0
    3.8714   -1.5728    8.7163 O   0  0  0  0  0  0  0  0  0  0  0  0
    3.3107   -0.1986    5.4358 C   0  0  0  0  0  0  0  0  0  0  0  0
    4.3486   -0.5500    4.3687 C   0  0  0  0  0  0  0  0  0  0  0  0
    6.4361   -1.9519    3.2531 O   0  0  0  0  0  0  0  0  0  0  0  0
    3.8461   -3.6158    1.4153 C   0  0  0  0  0  0  0  0  0  0  0  0
    5.8956   -3.1403   -1.1259 O   0  0  0  0  0  0  0  0  0  0  0  0
    6.2518    0.8885   -0.1643 C   0  0  0  0  0  0  0  0  0  0  0  0
    4.7506    1.1439   -0.0024 C   0  0  0  0  0  0  0  0  0  0  0  0
    4.0237    1.2521   -1.3534 C   0  0  0  0  0  0  0  0  0  0  0  0
    2.6189    1.5060   -1.1133 N   0  0  0  0  0  0  0  0  0  0  0  0
    2.0604    0.4186   -0.3271 C   0  0  0  0  0  0  0  0  0  0  0  0
    2.8133    0.3444    0.9988 C   0  0  0  0  0  0  0  0  0  0  0  0
    4.1905    0.1184    0.7958 O   0  0  0  0  0  0  0  0  0  0  0  0
    8.8808    0.1181   -1.1313 O   0  0  0  0  0  0  0  0  0  0  0  0
    8.9286   -0.7575   -3.7639 C   0  0  0  0  0  0  0  0  0  0  0  0
    8.4603    0.3216   -4.7487 C   0  0  0  0  0  0  0  0  0  0  0  0
    7.0943   -0.0370   -5.3439 C   0  0  0  0  0  0  0  0  0  0  0  0
    3.9673   -1.3565   -3.9124 O   0  0  0  0  0  0  0  0  0  0  0  0
    1.4713    2.4642   -4.5147 C   0  0  0  0  0  0  0  0  0  0  0  0
    0.2086    3.0065   -4.1810 C   0  0  0  0  0  0  0  0  0  0  0  0
   -0.2401    3.0259   -2.8656 C   0  0  0  0  0  0  0  0  0  0  0  0
    0.5792    2.5018   -1.8956 C   0  0  0  0  0  0  0  0  0  0  0  0
    1.8424    1.9567   -2.1980 C   0  0  0  0  0  0  0  0  0  0  0  0
    2.2889    1.9447   -3.5080 C   0  0  0  0  0  0  0  0  0  0  0  0
    2.9186   -2.1293    3.3628 F   0  0  0  0  0  0  0  0  0  0  0  0
    0.6782    7.3271   -7.6911 H   0  0  0  0  0  0  0  0  0  0  0  0
    2.4143    7.6072   -7.5271 H   0  0  0  0  0  0  0  0  0  0  0  0
    1.7243    7.1817   -9.1083 H   0  0  0  0  0  0  0  0  0  0  0  0
    1.8477    5.3439   -6.6660 H   0  0  0  0  0  0  0  0  0  0  0  0
    4.1459    5.2206   -6.5355 H   0  0  0  0  0  0  0  0  0  0  0  0
    5.0462    4.8457   -8.0297 H   0  0  0  0  0  0  0  0  0  0  0  0
    4.4365    6.4926   -7.7532 H   0  0  0  0  0  0  0  0  0  0  0  0
   -0.7847    4.7913  -11.2506 H   0  0  0  0  0  0  0  0  0  0  0  0
   -2.0412    2.8783  -10.2276 H   0  0  0  0  0  0  0  0  0  0  0  0
   -1.4141    2.1672   -7.9235 H   0  0  0  0  0  0  0  0  0  0  0  0
   -2.0502    4.1051   -6.3739 H   0  0  0  0  0  0  0  0  0  0  0  0
   -2.2965    3.8112   -4.6428 H   0  0  0  0  0  0  0  0  0  0  0  0
   -0.8815    5.8223   -4.1272 H   0  0  0  0  0  0  0  0  0  0  0  0
   -0.6855    6.1145   -5.8583 H   0  0  0  0  0  0  0  0  0  0  0  0
   -2.2841    6.2510   -5.1164 H   0  0  0  0  0  0  0  0  0  0  0  0
    2.8332    2.8350   -7.6435 H   0  0  0  0  0  0  0  0  0  0  0  0
    3.7035    2.2825   -6.2075 H   0  0  0  0  0  0  0  0  0  0  0  0
    4.7367    0.7729   -8.0264 H   0  0  0  0  0  0  0  0  0  0  0  0
    3.7391   -0.4787   -8.7675 H   0  0  0  0  0  0  0  0  0  0  0  0
    3.5219    1.2117   -9.2309 H   0  0  0  0  0  0  0  0  0  0  0  0
    0.5620    0.4675   -7.0640 H   0  0  0  0  0  0  0  0  0  0  0  0
    1.0594    1.1054   -8.6358 H   0  0  0  0  0  0  0  0  0  0  0  0
    1.2925   -0.6035   -8.2610 H   0  0  0  0  0  0  0  0  0  0  0  0
    2.3249   -0.1115   -5.3128 H   0  0  0  0  0  0  0  0  0  0  0  0
    2.8834   -1.2990   -6.5063 H   0  0  0  0  0  0  0  0  0  0  0  0
    6.0459    0.5421   -3.5542 H   0  0  0  0  0  0  0  0  0  0  0  0
    6.1099   -2.0089   -2.8746 H   0  0  0  0  0  0  0  0  0  0  0  0
    5.7439   -0.7818   -1.4365 H   0  0  0  0  0  0  0  0  0  0  0  0
    6.9918   -1.2483    1.1421 H   0  0  0  0  0  0  0  0  0  0  0  0
    7.1779   -3.3661    1.8305 H   0  0  0  0  0  0  0  0  0  0  0  0
    5.6704   -5.4070    0.1398 H   0  0  0  0  0  0  0  0  0  0  0  0
    5.2067   -5.8468    2.5492 H   0  0  0  0  0  0  0  0  0  0  0  0
    6.3489   -7.0335    1.9229 H   0  0  0  0  0  0  0  0  0  0  0  0
    6.9254   -5.6933    2.9159 H   0  0  0  0  0  0  0  0  0  0  0  0
    7.8907   -6.4615    0.0262 H   0  0  0  0  0  0  0  0  0  0  0  0
    7.9399   -4.8176   -0.6092 H   0  0  0  0  0  0  0  0  0  0  0  0
    8.5818   -5.1623    1.0014 H   0  0  0  0  0  0  0  0  0  0  0  0
    4.0331   -3.9641    4.8460 H   0  0  0  0  0  0  0  0  0  0  0  0
    5.2482   -2.8912    5.5668 H   0  0  0  0  0  0  0  0  0  0  0  0
    2.2041   -2.6289    5.8034 H   0  0  0  0  0  0  0  0  0  0  0  0
    3.3257   -3.0858    7.1155 H   0  0  0  0  0  0  0  0  0  0  0  0
    6.4876    3.8461    6.3226 H   0  0  0  0  0  0  0  0  0  0  0  0
    5.4228    2.4467    6.4876 H   0  0  0  0  0  0  0  0  0  0  0  0
    4.7445    4.0387    6.0598 H   0  0  0  0  0  0  0  0  0  0  0  0
    5.5613    5.3891    9.4137 H   0  0  0  0  0  0  0  0  0  0  0  0
    6.6129    5.4576    8.0028 H   0  0  0  0  0  0  0  0  0  0  0  0
    4.8930    5.8473    7.8277 H   0  0  0  0  0  0  0  0  0  0  0  0
    2.0753    3.3388    8.8577 H   0  0  0  0  0  0  0  0  0  0  0  0
    2.8825    4.9038    8.7155 H   0  0  0  0  0  0  0  0  0  0  0  0
    2.7293    3.8482    7.3004 H   0  0  0  0  0  0  0  0  0  0  0  0
    5.4506    2.9274   10.5034 H   0  0  0  0  0  0  0  0  0  0  0  0
    4.2410    4.2134   10.6733 H   0  0  0  0  0  0  0  0  0  0  0  0
    3.7460    2.5230   10.7334 H   0  0  0  0  0  0  0  0  0  0  0  0
    2.3056   -0.2789    5.0018 H   0  0  0  0  0  0  0  0  0  0  0  0
    3.4603    0.8224    5.7902 H   0  0  0  0  0  0  0  0  0  0  0  0
    5.3588   -0.4277    4.7583 H   0  0  0  0  0  0  0  0  0  0  0  0
    4.2312    0.0937    3.4963 H   0  0  0  0  0  0  0  0  0  0  0  0
    3.2245   -4.1625    2.1246 H   0  0  0  0  0  0  0  0  0  0  0  0
    3.3167   -2.7182    1.0946 H   0  0  0  0  0  0  0  0  0  0  0  0
    4.0108   -4.2352    0.5392 H   0  0  0  0  0  0  0  0  0  0  0  0
    6.7335    0.9469    0.8128 H   0  0  0  0  0  0  0  0  0  0  0  0
    6.6725    1.6808   -0.7859 H   0  0  0  0  0  0  0  0  0  0  0  0
    4.6124    2.1082    0.5198 H   0  0  0  0  0  0  0  0  0  0  0  0
    4.4465    2.0911   -1.9106 H   0  0  0  0  0  0  0  0  0  0  0  0
    4.1571    0.3208   -1.9256 H   0  0  0  0  0  0  0  0  0  0  0  0
    1.0018    0.5945   -0.1420 H   0  0  0  0  0  0  0  0  0  0  0  0
    2.1729   -0.5415   -0.8589 H   0  0  0  0  0  0  0  0  0  0  0  0
    2.6710    1.2900    1.5460 H   0  0  0  0  0  0  0  0  0  0  0  0
    2.4473   -0.4848    1.6051 H   0  0  0  0  0  0  0  0  0  0  0  0
    9.8170   -0.4356   -3.2210 H   0  0  0  0  0  0  0  0  0  0  0  0
    9.1263   -1.6939   -4.2892 H   0  0  0  0  0  0  0  0  0  0  0  0
    8.3848    1.2722   -4.2147 H   0  0  0  0  0  0  0  0  0  0  0  0
    9.1979    0.4362   -5.5431 H   0  0  0  0  0  0  0  0  0  0  0  0
    7.1849   -0.9203   -5.9767 H   0  0  0  0  0  0  0  0  0  0  0  0
    6.7120    0.7881   -5.9444 H   0  0  0  0  0  0  0  0  0  0  0  0
   -1.1973    3.4498   -2.6010 H   0  0  0  0  0  0  0  0  0  0  0  0
    0.2624    2.5296   -0.8643 H   0  0  0  0  0  0  0  0  0  0  0  0
    3.2566    1.5451   -3.7648 H   0  0  0  0  0  0  0  0  0  0  0  0
  1  2  1  0  0  0  0
  2  3  1  0  0  0  0
  3  4  1  0  0  0  0
  2  5  1  0  0  0  0
  5  6  4  0  0  0  0
  6  7  4  0  0  0  0
  7  8  4  0  0  0  0
  8  9  4  0  0  0  0
  5 10  4  0  0  0  0
  9 10  4  0  0  0  0
 10 11  1  0  0  0  0
 11 12  1  0  0  0  0
 12 13  1  0  0  0  0
 13 14  1  0  0  0  0
 11 15  2  0  0  0  0
 15 16  1  0  0  0  0
 16 17  1  0  0  0  0
 17 18  1  0  0  0  0
 17 19  1  0  0  0  0
 17 20  1  0  0  0  0
 20 21  1  0  0  0  0
 21 22  1  0  0  0  0
 22 23  1  0  0  0  0
 23 24  1  0  0  0  0
 24 25  1  0  0  0  0
 25 26  4  0  0  0  0
 26 27  1  0  0  0  0
 27 28  1  0  0  0  0
 28 29  4  0  0  0  0
 29 30  1  0  0  0  0
 30 31  1  0  0  0  0
 31 32  1  0  0  0  0
 31 33  1  0  0  0  0
 30 34  1  0  0  0  0
 34 35  4  0  0  0  0
 35 36  1  0  0  0  0
 36 37  1  0  0  0  0
 37 38  1  0  0  0  0
 38 39  1  0  0  0  0
 39 40  4  0  0  0  0
 40 41  1  0  0  0  0
 41 42  3  0  0  0  0
 42 43  1  0  0  0  0
 43 44  1  0  0  0  0
 44 45  1  0  0  0  0
 44 46  1  0  0  0  0
 43 47  1  0  0  0  0
 43 48  1  0  0  0  0
 40 49  2  0  0  0  0
 39 50  1  0  0  0  0
 36 51  1  0  0  0  0
 50 51  1  0  0  0  0
 35 52  2  0  0  0  0
 34 53  1  0  0  0  0
 29 54  2  0  0  0  0
 27 55  1  0  0  0  0
 55 56  1  0  0  0  0
 56 57  1  0  0  0  0
 57 58  1  0  0  0  0
 58 59  1  0  0  0  0
 59 60  1  0  0  0  0
 56 61  1  0  0  0  0
 60 61  1  0  0  0  0
 26 62  2  0  0  0  0
 25 63  1  0  0  0  0
 63 64  1  0  0  0  0
 23 65  1  0  0  0  0
 64 65  1  0  0  0  0
 22 66  2  0  0  0  0
 15 67  4  0  0  0  0
 12 68  1  0  0  0  0
 67 68  4  0  0  0  0
 68 69  4  0  0  0  0
 69 70  2  0  0  0  0
 58 71  1  0  0  0  0
 70 71  4  0  0  0  0
 67 72  4  0  0  0  0
 71 72  4  0  0  0  0
 36 73  1  0  0  0  0
  1 74  1  0  0  0  0
  1 75  1  0  0  0  0
  1 76  1  0  0  0  0
  2 77  1  0  0  0  0
  4 78  1  0  0  0  0
  4 79  1  0  0  0  0
  4 80  1  0  0  0  0
  7 81  1  0  0  0  0
  8 82  1  0  0  0  0
  9 83  1  0  0  0  0
 13 84  1  0  0  0  0
 13 85  1  0  0  0  0
 14 86  1  0  0  0  0
 14 87  1  0  0  0  0
 14 88  1  0  0  0  0
 16 89  1  0  0  0  0
 16 90  1  0  0  0  0
 18 91  1  0  0  0  0
 18 92  1  0  0  0  0
 18 93  1  0  0  0  0
 19 94  1  0  0  0  0
 19 95  1  0  0  0  0
 19 96  1  0  0  0  0
 20 97  1  0  0  0  0
 20 98  1  0  0  0  0
 23 99  1  0  0  0  0
 24100  1  0  0  0  0
 27101  1  0  0  0  0
 28102  1  0  0  0  0
 30103  1  0  0  0  0
 31104  1  0  0  0  0
 32105  1  0  0  0  0
 32106  1  0  0  0  0
 32107  1  0  0  0  0
 33108  1  0  0  0  0
 33109  1  0  0  0  0
 33110  1  0  0  0  0
 37111  1  0  0  0  0
 37112  1  0  0  0  0
 38113  1  0  0  0  0
 38114  1  0  0  0  0
 45115  1  0  0  0  0
 45116  1  0  0  0  0
 45117  1  0  0  0  0
 46118  1  0  0  0  0
 46119  1  0  0  0  0
 46120  1  0  0  0  0
 47121  1  0  0  0  0
 47122  1  0  0  0  0
 47123  1  0  0  0  0
 48124  1  0  0  0  0
 48125  1  0  0  0  0
 48126  1  0  0  0  0
 50127  1  0  0  0  0
 50128  1  0  0  0  0
 51129  1  0  0  0  0
 51130  1  0  0  0  0
 53131  1  0  0  0  0
 53132  1  0  0  0  0
 53133  1  0  0  0  0
 55134  1  0  0  0  0
 55135  1  0  0  0  0
 56136  1  0  0  0  0
 57137  1  0  0  0  0
 57138  1  0  0  0  0
 59139  1  0  0  0  0
 59140  1  0  0  0  0
 60141  1  0  0  0  0
 60142  1  0  0  0  0
 63143  1  0  0  0  0
 63144  1  0  0  0  0
 64145  1  0  0  0  0
 64146  1  0  0  0  0
 65147  1  0  0  0  0
 65148  1  0  0  0  0
 69149  1  0  0  0  0
 70150  1  0  0  0  0
 72151  1  0  0  0  0
M  END
$$$$
