 xtb: 6.7.1 (edcfbbe)
          08232519073D

151157  0     0  0            999 V2000
   -1.1470   -3.5013   -3.5967 C   0  0  0  0  0  0  0  0  0  0  0  0
   -0.0761   -2.4143   -3.5176 C   0  0  0  0  0  0  0  0  0  0  0  0
    0.1828   -1.8332   -4.7901 O   0  0  0  0  0  0  0  0  0  0  0  0
   -0.6406   -0.7421   -5.1163 C   0  0  0  0  0  0  0  0  0  0  0  0
    1.2591   -2.9746   -3.0781 C   0  0  0  0  0  0  0  0  0  0  0  0
    1.6741   -4.0594   -3.7111 N   0  0  0  0  0  0  0  0  0  0  0  0
    2.8982   -4.5023   -3.5011 C   0  0  0  0  0  0  0  0  0  0  0  0
    3.7999   -3.8630   -2.6642 C   0  0  0  0  0  0  0  0  0  0  0  0
    3.3579   -2.7553   -1.9644 C   0  0  0  0  0  0  0  0  0  0  0  0
    2.0511   -2.3034   -2.1383 C   0  0  0  0  0  0  0  0  0  0  0  0
    1.5466   -1.1934   -1.3175 C   0  0  0  0  0  0  0  0  0  0  0  0
    1.9621    0.0982   -1.5289 N   0  0  0  0  0  0  0  0  0  0  0  0
    2.7249    0.5639   -2.6568 C   0  0  0  0  0  0  0  0  0  0  0  0
    4.1668    0.8978   -2.2793 C   0  0  0  0  0  0  0  0  0  0  0  0
    0.7078   -1.2540   -0.2250 C   0  0  0  0  0  0  0  0  0  0  0  0
   -0.0409   -2.4302    0.3216 C   0  0  0  0  0  0  0  0  0  0  0  0
    0.6804   -3.2781    1.3962 C   0  0  0  0  0  0  0  0  0  0  0  0
   -0.2662   -4.3934    1.8467 C   0  0  0  0  0  0  0  0  0  0  0  0
    1.9464   -3.9035    0.8081 C   0  0  0  0  0  0  0  0  0  0  0  0
    1.1164   -2.4191    2.6029 C   0  0  0  0  0  0  0  0  0  0  0  0
    0.1509   -2.3013    3.6574 O   0  0  0  0  0  0  0  0  0  0  0  0
    0.3111   -3.1122    4.7015 C   0  0  0  0  0  0  0  0  0  0  0  0
   -0.6169   -2.7454    5.8539 C   0  0  0  0  0  0  0  0  0  0  0  0
   -2.0228   -2.6854    5.4782 N   0  0  0  0  0  0  0  0  0  0  0  0
   -2.7561   -2.1154    6.5265 N   0  0  0  0  0  0  0  0  0  0  0  0
   -2.9479   -0.7930    6.7376 C   0  0  0  0  0  0  0  0  0  0  0  0
   -2.5249    0.1444    5.5903 C   0  0  0  0  0  0  0  0  0  0  0  0
   -3.7114    0.5270    4.8518 N   0  0  0  0  0  0  0  0  0  0  0  0
   -4.1780   -0.2188    3.8429 C   0  0  0  0  0  0  0  0  0  0  0  0
   -5.4720    0.2934    3.2045 C   0  0  0  0  0  0  0  0  0  0  0  0
   -6.6989   -0.4513    3.7526 C   0  0  0  0  0  0  0  0  0  0  0  0
   -7.9771    0.1700    3.1909 C   0  0  0  0  0  0  0  0  0  0  0  0
   -6.7187   -0.3783    5.2793 C   0  0  0  0  0  0  0  0  0  0  0  0
   -5.3167    0.2139    1.7496 N   0  0  0  0  0  0  0  0  0  0  0  0
   -4.6965    1.2722    1.1987 C   0  0  0  0  0  0  0  0  0  0  0  0
   -4.3313    1.2783   -0.2970 C   0  0  0  0  0  0  0  0  0  0  0  0
   -4.0851    2.7229   -0.7437 C   0  0  0  0  0  0  0  0  0  0  0  0
   -3.5856    2.7670   -2.1861 C   0  0  0  0  0  0  0  0  0  0  0  0
   -2.4292    1.9248   -2.3538 N   0  0  0  0  0  0  0  0  0  0  0  0
   -1.1781    2.3677   -2.6149 C   0  0  0  0  0  0  0  0  0  0  0  0
   -1.0042    3.7966   -2.5884 C   0  0  0  0  0  0  0  0  0  0  0  0
   -0.6458    4.9368   -2.4384 C   0  0  0  0  0  0  0  0  0  0  0  0
   -0.3014    6.3563   -2.3839 C   0  0  0  0  0  0  0  0  0  0  0  0
   -0.3941    6.9764   -3.7160 N   0  0  0  0  0  0  0  0  0  0  0  0
    0.5648    6.4505   -4.6713 C   0  0  0  0  0  0  0  0  0  0  0  0
   -1.7301    6.9469   -4.2808 C   0  0  0  0  0  0  0  0  0  0  0  0
    1.1303    6.4831   -1.8388 C   0  0  0  0  0  0  0  0  0  0  0  0
   -1.2534    7.0658   -1.4067 C   0  0  0  0  0  0  0  0  0  0  0  0
   -0.2425    1.6190   -2.8488 O   0  0  0  0  0  0  0  0  0  0  0  0
   -2.6545    0.5410   -2.0175 C   0  0  0  0  0  0  0  0  0  0  0  0
   -3.0771    0.4349   -0.5504 C   0  0  0  0  0  0  0  0  0  0  0  0
   -4.3913    2.2524    1.8655 O   0  0  0  0  0  0  0  0  0  0  0  0
   -5.5430   -1.0730    1.1283 C   0  0  0  0  0  0  0  0  0  0  0  0
   -3.6062   -1.2260    3.4503 O   0  0  0  0  0  0  0  0  0  0  0  0
   -1.7988    1.3710    6.1374 C   0  0  0  0  0  0  0  0  0  0  0  0
   -1.3279    2.3488    5.0493 C   0  0  0  0  0  0  0  0  0  0  0  0
   -0.9682    1.6389    3.7419 C   0  0  0  0  0  0  0  0  0  0  0  0
   -0.5061    2.5931    2.7546 N   0  0  0  0  0  0  0  0  0  0  0  0
   -1.5362    3.6007    2.5369 C   0  0  0  0  0  0  0  0  0  0  0  0
   -1.9008    4.2543    3.8702 C   0  0  0  0  0  0  0  0  0  0  0  0
   -2.3430    3.3055    4.8143 O   0  0  0  0  0  0  0  0  0  0  0  0
   -3.5049   -0.3661    7.7323 O   0  0  0  0  0  0  0  0  0  0  0  0
   -2.8435   -3.0510    7.6330 C   0  0  0  0  0  0  0  0  0  0  0  0
   -1.4283   -3.3265    8.1505 C   0  0  0  0  0  0  0  0  0  0  0  0
   -0.5211   -3.7603    6.9986 C   0  0  0  0  0  0  0  0  0  0  0  0
    1.1496   -3.9706    4.7805 O   0  0  0  0  0  0  0  0  0  0  0  0
    0.6054    0.0824    0.2615 C   0  0  0  0  0  0  0  0  0  0  0  0
    1.3875    0.8996   -0.5839 C   0  0  0  0  0  0  0  0  0  0  0  0
    1.4611    2.2720   -0.3669 C   0  0  0  0  0  0  0  0  0  0  0  0
    0.7921    2.7992    0.7137 C   0  0  0  0  0  0  0  0  0  0  0  0
    0.0388    1.9970    1.5924 C   0  0  0  0  0  0  0  0  0  0  0  0
   -0.0775    0.6404    1.3423 C   0  0  0  0  0  0  0  0  0  0  0  0
   -5.3882    0.7781   -1.0610 F   0  0  0  0  0  0  0  0  0  0  0  0
   -1.3419   -3.9058   -2.6066 H   0  0  0  0  0  0  0  0  0  0  0  0
   -2.0720   -3.0955   -3.9992 H   0  0  0  0  0  0  0  0  0  0  0  0
   -0.7902   -4.2957   -4.2452 H   0  0  0  0  0  0  0  0  0  0  0  0
   -0.3806   -1.6259   -2.8135 H   0  0  0  0  0  0  0  0  0  0  0  0
   -0.4958    0.0846   -4.4120 H   0  0  0  0  0  0  0  0  0  0  0  0
   -0.3370   -0.4251   -6.1125 H   0  0  0  0  0  0  0  0  0  0  0  0
   -1.7012   -1.0201   -5.1378 H   0  0  0  0  0  0  0  0  0  0  0  0
    3.1684   -5.4011   -4.0400 H   0  0  0  0  0  0  0  0  0  0  0  0
    4.8087   -4.2285   -2.5512 H   0  0  0  0  0  0  0  0  0  0  0  0
    4.0151   -2.2425   -1.2756 H   0  0  0  0  0  0  0  0  0  0  0  0
    2.7067   -0.2120   -3.4265 H   0  0  0  0  0  0  0  0  0  0  0  0
    2.2221    1.4502   -3.0536 H   0  0  0  0  0  0  0  0  0  0  0  0
    4.1896    1.6311   -1.4766 H   0  0  0  0  0  0  0  0  0  0  0  0
    4.6941    0.0070   -1.9463 H   0  0  0  0  0  0  0  0  0  0  0  0
    4.6892    1.3051   -3.1408 H   0  0  0  0  0  0  0  0  0  0  0  0
   -0.9735   -2.0623    0.7567 H   0  0  0  0  0  0  0  0  0  0  0  0
   -0.2950   -3.1010   -0.5032 H   0  0  0  0  0  0  0  0  0  0  0  0
    0.2023   -5.0021    2.6165 H   0  0  0  0  0  0  0  0  0  0  0  0
   -1.1913   -3.9814    2.2456 H   0  0  0  0  0  0  0  0  0  0  0  0
   -0.5099   -5.0346    1.0029 H   0  0  0  0  0  0  0  0  0  0  0  0
    2.3846   -4.6046    1.5149 H   0  0  0  0  0  0  0  0  0  0  0  0
    1.7153   -4.4384   -0.1099 H   0  0  0  0  0  0  0  0  0  0  0  0
    2.6788   -3.1332    0.5840 H   0  0  0  0  0  0  0  0  0  0  0  0
    2.0187   -2.8557    3.0423 H   0  0  0  0  0  0  0  0  0  0  0  0
    1.3262   -1.3977    2.2803 H   0  0  0  0  0  0  0  0  0  0  0  0
   -0.2537   -1.7598    6.2120 H   0  0  0  0  0  0  0  0  0  0  0  0
   -2.2313   -2.2476    4.5832 H   0  0  0  0  0  0  0  0  0  0  0  0
   -1.8666   -0.3915    4.9030 H   0  0  0  0  0  0  0  0  0  0  0  0
   -4.1481    1.3971    5.1131 H   0  0  0  0  0  0  0  0  0  0  0  0
   -5.5796    1.3580    3.4378 H   0  0  0  0  0  0  0  0  0  0  0  0
   -6.6380   -1.5049    3.4674 H   0  0  0  0  0  0  0  0  0  0  0  0
   -8.0907    1.1863    3.5621 H   0  0  0  0  0  0  0  0  0  0  0  0
   -7.9625    0.2091    2.1049 H   0  0  0  0  0  0  0  0  0  0  0  0
   -8.8440   -0.4072    3.5036 H   0  0  0  0  0  0  0  0  0  0  0  0
   -6.7173    0.6556    5.6180 H   0  0  0  0  0  0  0  0  0  0  0  0
   -7.6201   -0.8560    5.6554 H   0  0  0  0  0  0  0  0  0  0  0  0
   -5.8621   -0.8860    5.7154 H   0  0  0  0  0  0  0  0  0  0  0  0
   -5.0137    3.2875   -0.6513 H   0  0  0  0  0  0  0  0  0  0  0  0
   -3.3457    3.1662   -0.0777 H   0  0  0  0  0  0  0  0  0  0  0  0
   -4.3755    2.4034   -2.8554 H   0  0  0  0  0  0  0  0  0  0  0  0
   -3.3308    3.7913   -2.4638 H   0  0  0  0  0  0  0  0  0  0  0  0
    1.5779    6.6749   -4.3476 H   0  0  0  0  0  0  0  0  0  0  0  0
    0.4677    5.3661   -4.8254 H   0  0  0  0  0  0  0  0  0  0  0  0
    0.4040    6.9492   -5.6258 H   0  0  0  0  0  0  0  0  0  0  0  0
   -2.4224    7.4867   -3.6402 H   0  0  0  0  0  0  0  0  0  0  0  0
   -1.7041    7.4553   -5.2436 H   0  0  0  0  0  0  0  0  0  0  0  0
   -2.1088    5.9256   -4.4387 H   0  0  0  0  0  0  0  0  0  0  0  0
    1.1453    6.2102   -0.7865 H   0  0  0  0  0  0  0  0  0  0  0  0
    1.8154    5.8223   -2.3622 H   0  0  0  0  0  0  0  0  0  0  0  0
    1.4673    7.5111   -1.9434 H   0  0  0  0  0  0  0  0  0  0  0  0
   -1.0288    6.7589   -0.3881 H   0  0  0  0  0  0  0  0  0  0  0  0
   -1.1173    8.1407   -1.4907 H   0  0  0  0  0  0  0  0  0  0  0  0
   -2.2928    6.8183   -1.6045 H   0  0  0  0  0  0  0  0  0  0  0  0
   -3.4360    0.1278   -2.6651 H   0  0  0  0  0  0  0  0  0  0  0  0
   -1.7228   -0.0037   -2.1764 H   0  0  0  0  0  0  0  0  0  0  0  0
   -2.2745    0.8164    0.0854 H   0  0  0  0  0  0  0  0  0  0  0  0
   -3.2476   -0.6104   -0.2954 H   0  0  0  0  0  0  0  0  0  0  0  0
   -4.8974   -1.8167    1.6003 H   0  0  0  0  0  0  0  0  0  0  0  0
   -6.5838   -1.3697    1.2552 H   0  0  0  0  0  0  0  0  0  0  0  0
   -5.3397   -1.0397    0.0660 H   0  0  0  0  0  0  0  0  0  0  0  0
   -2.4621    1.9043    6.8204 H   0  0  0  0  0  0  0  0  0  0  0  0
   -0.9341    1.0275    6.7077 H   0  0  0  0  0  0  0  0  0  0  0  0
   -0.4311    2.8819    5.4119 H   0  0  0  0  0  0  0  0  0  0  0  0
   -0.1685    0.9191    3.9307 H   0  0  0  0  0  0  0  0  0  0  0  0
   -1.8658    1.1240    3.3702 H   0  0  0  0  0  0  0  0  0  0  0  0
   -1.1679    4.3565    1.8426 H   0  0  0  0  0  0  0  0  0  0  0  0
   -2.4501    3.1442    2.1277 H   0  0  0  0  0  0  0  0  0  0  0  0
   -1.0264    4.7903    4.2719 H   0  0  0  0  0  0  0  0  0  0  0  0
   -2.7275    4.9524    3.7320 H   0  0  0  0  0  0  0  0  0  0  0  0
   -3.4701   -2.6064    8.4060 H   0  0  0  0  0  0  0  0  0  0  0  0
   -3.3001   -3.9684    7.2570 H   0  0  0  0  0  0  0  0  0  0  0  0
   -1.0368   -2.4123    8.6033 H   0  0  0  0  0  0  0  0  0  0  0  0
   -1.4595   -4.1001    8.9172 H   0  0  0  0  0  0  0  0  0  0  0  0
   -0.8417   -4.7296    6.6157 H   0  0  0  0  0  0  0  0  0  0  0  0
    0.5129   -3.8493    7.3304 H   0  0  0  0  0  0  0  0  0  0  0  0
    2.0262    2.9147   -1.0238 H   0  0  0  0  0  0  0  0  0  0  0  0
    0.8624    3.8573    0.9162 H   0  0  0  0  0  0  0  0  0  0  0  0
   -0.6719   -0.0083    1.9650 H   0  0  0  0  0  0  0  0  0  0  0  0
  1  2  1  0  0  0  0
  2  3  1  0  0  0  0
  3  4  1  0  0  0  0
  2  5  1  0  0  0  0
  5  6  4  0  0  0  0
  6  7  4  0  0  0  0
  7  8  4  0  0  0  0
  8  9  4  0  0  0  0
  5 10  4  0  0  0  0
  9 10  4  0  0  0  0
 10 11  1  0  0  0  0
 11 12  1  0  0  0  0
 12 13  1  0  0  0  0
 13 14  1  0  0  0  0
 11 15  2  0  0  0  0
 15 16  1  0  0  0  0
 16 17  1  0  0  0  0
 17 18  1  0  0  0  0
 17 19  1  0  0  0  0
 17 20  1  0  0  0  0
 20 21  1  0  0  0  0
 21 22  1  0  0  0  0
 22 23  1  0  0  0  0
 23 24  1  0  0  0  0
 24 25  1  0  0  0  0
 25 26  4  0  0  0  0
 26 27  1  0  0  0  0
 27 28  1  0  0  0  0
 28 29  4  0  0  0  0
 29 30  1  0  0  0  0
 30 31  1  0  0  0  0
 31 32  1  0  0  0  0
 31 33  1  0  0  0  0
 30 34  1  0  0  0  0
 34 35  4  0  0  0  0
 35 36  1  0  0  0  0
 36 37  1  0  0  0  0
 37 38  1  0  0  0  0
 38 39  1  0  0  0  0
 39 40  4  0  0  0  0
 40 41  1  0  0  0  0
 41 42  3  0  0  0  0
 42 43  1  0  0  0  0
 43 44  1  0  0  0  0
 44 45  1  0  0  0  0
 44 46  1  0  0  0  0
 43 47  1  0  0  0  0
 43 48  1  0  0  0  0
 40 49  2  0  0  0  0
 39 50  1  0  0  0  0
 36 51  1  0  0  0  0
 50 51  1  0  0  0  0
 35 52  2  0  0  0  0
 34 53  1  0  0  0  0
 29 54  2  0  0  0  0
 27 55  1  0  0  0  0
 55 56  1  0  0  0  0
 56 57  1  0  0  0  0
 57 58  1  0  0  0  0
 58 59  1  0  0  0  0
 59 60  1  0  0  0  0
 56 61  1  0  0  0  0
 60 61  1  0  0  0  0
 26 62  2  0  0  0  0
 25 63  1  0  0  0  0
 63 64  1  0  0  0  0
 23 65  1  0  0  0  0
 64 65  1  0  0  0  0
 22 66  2  0  0  0  0
 15 67  4  0  0  0  0
 12 68  1  0  0  0  0
 67 68  4  0  0  0  0
 68 69  4  0  0  0  0
 69 70  2  0  0  0  0
 58 71  1  0  0  0  0
 70 71  4  0  0  0  0
 67 72  4  0  0  0  0
 71 72  4  0  0  0  0
 36 73  1  0  0  0  0
  1 74  1  0  0  0  0
  1 75  1  0  0  0  0
  1 76  1  0  0  0  0
  2 77  1  0  0  0  0
  4 78  1  0  0  0  0
  4 79  1  0  0  0  0
  4 80  1  0  0  0  0
  7 81  1  0  0  0  0
  8 82  1  0  0  0  0
  9 83  1  0  0  0  0
 13 84  1  0  0  0  0
 13 85  1  0  0  0  0
 14 86  1  0  0  0  0
 14 87  1  0  0  0  0
 14 88  1  0  0  0  0
 16 89  1  0  0  0  0
 16 90  1  0  0  0  0
 18 91  1  0  0  0  0
 18 92  1  0  0  0  0
 18 93  1  0  0  0  0
 19 94  1  0  0  0  0
 19 95  1  0  0  0  0
 19 96  1  0  0  0  0
 20 97  1  0  0  0  0
 20 98  1  0  0  0  0
 23 99  1  0  0  0  0
 24100  1  0  0  0  0
 27101  1  0  0  0  0
 28102  1  0  0  0  0
 30103  1  0  0  0  0
 31104  1  0  0  0  0
 32105  1  0  0  0  0
 32106  1  0  0  0  0
 32107  1  0  0  0  0
 33108  1  0  0  0  0
 33109  1  0  0  0  0
 33110  1  0  0  0  0
 37111  1  0  0  0  0
 37112  1  0  0  0  0
 38113  1  0  0  0  0
 38114  1  0  0  0  0
 45115  1  0  0  0  0
 45116  1  0  0  0  0
 45117  1  0  0  0  0
 46118  1  0  0  0  0
 46119  1  0  0  0  0
 46120  1  0  0  0  0
 47121  1  0  0  0  0
 47122  1  0  0  0  0
 47123  1  0  0  0  0
 48124  1  0  0  0  0
 48125  1  0  0  0  0
 48126  1  0  0  0  0
 50127  1  0  0  0  0
 50128  1  0  0  0  0
 51129  1  0  0  0  0
 51130  1  0  0  0  0
 53131  1  0  0  0  0
 53132  1  0  0  0  0
 53133  1  0  0  0  0
 55134  1  0  0  0  0
 55135  1  0  0  0  0
 56136  1  0  0  0  0
 57137  1  0  0  0  0
 57138  1  0  0  0  0
 59139  1  0  0  0  0
 59140  1  0  0  0  0
 60141  1  0  0  0  0
 60142  1  0  0  0  0
 63143  1  0  0  0  0
 63144  1  0  0  0  0
 64145  1  0  0  0  0
 64146  1  0  0  0  0
 65147  1  0  0  0  0
 65148  1  0  0  0  0
 69149  1  0  0  0  0
 70150  1  0  0  0  0
 72151  1  0  0  0  0
M  END
$$$$
