mol_bioactive_34
     RDKit          3D

151157  0  0  0  0  0  0  0  0999 V2000
   -6.2372    2.3841    6.6706 C   0  0  0  0  0  0  0  0  0  0  0  0
   -5.6209    2.0284    5.3134 C   0  0  2  0  0  0  0  0  0  0  0  0
   -6.4670    2.5480    4.2750 O   0  0  0  0  0  0  0  0  0  0  0  0
   -6.1224    3.8728    3.8948 C   0  0  0  0  0  0  0  0  0  0  0  0
   -5.4667    0.5165    5.1503 C   0  0  0  0  0  0  0  0  0  0  0  0
   -6.5017   -0.2472    5.6165 N   0  0  0  0  0  0  0  0  0  0  0  0
   -6.4255   -1.5861    5.4708 C   0  0  0  0  0  0  0  0  0  0  0  0
   -5.3556   -2.2333    4.8870 C   0  0  0  0  0  0  0  0  0  0  0  0
   -4.3023   -1.4592    4.4160 C   0  0  0  0  0  0  0  0  0  0  0  0
   -4.3407   -0.0626    4.5321 C   0  0  0  0  0  0  0  0  0  0  0  0
   -3.1964    0.7035    4.0191 C   0  0  0  0  0  0  0  0  0  0  0  0
   -2.1937    1.2103    4.8430 N   0  0  0  0  0  0  0  0  0  0  0  0
   -2.0356    0.9442    6.2694 C   0  0  0  0  0  0  0  0  0  0  0  0
   -2.3067    2.1469    7.1596 C   0  0  0  0  0  0  0  0  0  0  0  0
   -2.7840    0.9058    2.6993 C   0  0  0  0  0  0  0  0  0  0  0  0
   -3.3206    0.3001    1.4171 C   0  0  0  0  0  0  0  0  0  0  0  0
   -4.5333    0.9438    0.6983 C   0  0  0  0  0  0  0  0  0  0  0  0
   -5.8303    0.6195    1.4580 C   0  0  0  0  0  0  0  0  0  0  0  0
   -4.6561    0.2795   -0.6954 C   0  0  0  0  0  0  0  0  0  0  0  0
   -4.4269    2.4799    0.5328 C   0  0  0  0  0  0  0  0  0  0  0  0
   -3.5544    2.8546   -0.5529 O   0  0  0  0  0  0  0  0  0  0  0  0
   -3.8107    4.1042   -1.0545 C   0  0  0  0  0  0  0  0  0  0  0  0
   -2.9904    4.4192   -2.3146 C   0  0  1  0  0  0  0  0  0  0  0  0
   -2.6842    3.2011   -3.0871 N   0  0  0  0  0  0  0  0  0  0  0  0
   -1.9295    3.5044   -4.2514 N   0  0  0  0  0  0  0  0  0  0  0  0
   -0.5399    3.3630   -4.3814 C   0  0  0  0  0  0  0  0  0  0  0  0
    0.2631    3.0220   -3.1114 C   0  0  1  0  0  0  0  0  0  0  0  0
    1.1543    1.8971   -3.3302 N   0  0  0  0  0  0  0  0  0  0  0  0
    0.7403    0.6067   -3.0742 C   0  0  0  0  0  0  0  0  0  0  0  0
    1.8298   -0.4819   -3.2646 C   0  0  2  0  0  0  0  0  0  0  0  0
    1.7730   -1.1269   -4.6746 C   0  0  0  0  0  0  0  0  0  0  0  0
    2.9378   -2.1075   -4.8695 C   0  0  0  0  0  0  0  0  0  0  0  0
    1.8317   -0.0818   -5.7970 C   0  0  0  0  0  0  0  0  0  0  0  0
    1.7196   -1.4354   -2.1209 N   0  0  0  0  0  0  0  0  0  0  0  0
    2.3452   -1.0396   -0.9348 C   0  0  0  0  0  0  0  0  0  0  0  0
    2.0963   -1.8120    0.3863 C   0  0  0  0  0  0  0  0  0  0  0  0
    3.1678   -1.4032    1.4149 C   0  0  0  0  0  0  0  0  0  0  0  0
    2.9070   -2.0331    2.7715 C   0  0  0  0  0  0  0  0  0  0  0  0
    1.5485   -1.7486    3.2140 N   0  0  0  0  0  0  0  0  0  0  0  0
    1.2197   -1.2311    4.4581 C   0  0  0  0  0  0  0  0  0  0  0  0
    2.2520   -0.5326    5.1937 C   0  0  0  0  0  0  0  0  0  0  0  0
    3.1039    0.1118    5.7464 C   0  0  0  0  0  0  0  0  0  0  0  0
    4.1526    0.9546    6.3675 C   0  0  0  0  0  0  0  0  0  0  0  0
    5.0033    0.1969    7.3241 N   0  0  0  0  0  0  0  0  0  0  0  0
    5.7765   -0.8912    6.7175 C   0  0  0  0  0  0  0  0  0  0  0  0
    4.2855   -0.3157    8.4964 C   0  0  0  0  0  0  0  0  0  0  0  0
    3.4688    2.1517    7.0710 C   0  0  0  0  0  0  0  0  0  0  0  0
    5.0191    1.5579    5.2352 C   0  0  0  0  0  0  0  0  0  0  0  0
    0.1008   -1.2890    4.9541 O   0  0  0  0  0  0  0  0  0  0  0  0
    0.4934   -2.1694    2.3074 C   0  0  0  0  0  0  0  0  0  0  0  0
    0.6910   -1.5262    0.9369 C   0  0  0  0  0  0  0  0  0  0  0  0
    3.0778   -0.0403   -0.9276 O   0  0  0  0  0  0  0  0  0  0  0  0
    0.7210   -2.5001   -2.2000 C   0  0  0  0  0  0  0  0  0  0  0  0
   -0.4132    0.3588   -2.7166 O   0  0  0  0  0  0  0  0  0  0  0  0
    1.0232    4.2871   -2.6588 C   0  0  0  0  0  0  0  0  0  0  0  0
    1.6539    4.2024   -1.2569 C   0  0  1  0  0  0  0  0  0  0  0  0
    0.6911    3.5765   -0.2351 C   0  0  0  0  0  0  0  0  0  0  0  0
    1.2929    3.4972    1.1074 N   0  0  0  0  0  0  0  0  0  0  0  0
    2.5906    2.7730    1.0499 C   0  0  0  0  0  0  0  0  0  0  0  0
    3.5002    3.3782   -0.0379 C   0  0  0  0  0  0  0  0  0  0  0  0
    2.8662    3.4296   -1.3319 O   0  0  0  0  0  0  0  0  0  0  0  0
    0.0483    3.5753   -5.4474 O   0  0  0  0  0  0  0  0  0  0  0  0
   -2.6836    4.2767   -5.2386 C   0  0  0  0  0  0  0  0  0  0  0  0
   -3.0927    5.6032   -4.5904 C   0  0  0  0  0  0  0  0  0  0  0  0
   -3.7834    5.3725   -3.2358 C   0  0  0  0  0  0  0  0  0  0  0  0
   -4.5760    4.9112   -0.5337 O   0  0  0  0  0  0  0  0  0  0  0  0
   -1.6013    1.7137    2.7599 C   0  0  0  0  0  0  0  0  0  0  0  0
   -1.2397    1.8710    4.0905 C   0  0  0  0  0  0  0  0  0  0  0  0
   -0.0623    2.5439    4.4574 C   0  0  0  0  0  0  0  0  0  0  0  0
    0.7498    3.0739    3.4434 C   0  0  0  0  0  0  0  0  0  0  0  0
    0.4281    2.9453    2.0904 C   0  0  0  0  0  0  0  0  0  0  0  0
   -0.7610    2.2633    1.7700 C   0  0  0  0  0  0  0  0  0  0  0  0
    2.2262   -3.1659    0.2094 F   0  0  0  0  0  0  0  0  0  0  0  0
   -5.6829    1.9285    7.4971 H   0  0  0  0  0  0  0  0  0  0  0  0
   -6.2435    3.4689    6.8200 H   0  0  0  0  0  0  0  0  0  0  0  0
   -7.2820    2.0591    6.7322 H   0  0  0  0  0  0  0  0  0  0  0  0
   -4.6389    2.5052    5.2544 H   0  0  0  0  0  0  0  0  0  0  0  0
   -6.2247    4.5613    4.7386 H   0  0  0  0  0  0  0  0  0  0  0  0
   -5.1013    3.9069    3.5036 H   0  0  0  0  0  0  0  0  0  0  0  0
   -6.8064    4.1899    3.1032 H   0  0  0  0  0  0  0  0  0  0  0  0
   -7.2774   -2.1406    5.8521 H   0  0  0  0  0  0  0  0  0  0  0  0
   -5.3402   -3.3136    4.8005 H   0  0  0  0  0  0  0  0  0  0  0  0
   -3.4422   -1.9457    3.9614 H   0  0  0  0  0  0  0  0  0  0  0  0
   -2.6864    0.1126    6.5548 H   0  0  0  0  0  0  0  0  0  0  0  0
   -1.0067    0.6004    6.4207 H   0  0  0  0  0  0  0  0  0  0  0  0
   -2.1094    1.8892    8.2053 H   0  0  0  0  0  0  0  0  0  0  0  0
   -1.6744    3.0005    6.8999 H   0  0  0  0  0  0  0  0  0  0  0  0
   -3.3442    2.4748    7.0891 H   0  0  0  0  0  0  0  0  0  0  0  0
   -2.4845    0.2603    0.7041 H   0  0  0  0  0  0  0  0  0  0  0  0
   -3.5428   -0.7576    1.6160 H   0  0  0  0  0  0  0  0  0  0  0  0
   -5.8672    1.1505    2.4052 H   0  0  0  0  0  0  0  0  0  0  0  0
   -6.7147    0.9248    0.8853 H   0  0  0  0  0  0  0  0  0  0  0  0
   -5.9269   -0.4524    1.6589 H   0  0  0  0  0  0  0  0  0  0  0  0
   -4.8347   -0.7983   -0.6044 H   0  0  0  0  0  0  0  0  0  0  0  0
   -5.4873    0.7080   -1.2662 H   0  0  0  0  0  0  0  0  0  0  0  0
   -3.7429    0.4088   -1.2880 H   0  0  0  0  0  0  0  0  0  0  0  0
   -5.4336    2.8694    0.3291 H   0  0  0  0  0  0  0  0  0  0  0  0
   -4.0688    2.9586    1.4495 H   0  0  0  0  0  0  0  0  0  0  0  0
   -2.0622    4.8962   -1.9790 H   0  0  0  0  0  0  0  0  0  0  0  0
   -2.3059    2.4316   -2.5296 H   0  0  0  0  0  0  0  0  0  0  0  0
   -0.4329    2.7340   -2.3316 H   0  0  0  0  0  0  0  0  0  0  0  0
    2.1146    2.0867   -3.5989 H   0  0  0  0  0  0  0  0  0  0  0  0
    2.8030    0.0210   -3.1847 H   0  0  0  0  0  0  0  0  0  0  0  0
    0.8294   -1.6710   -4.7980 H   0  0  0  0  0  0  0  0  0  0  0  0
    2.9418   -2.8969   -4.1121 H   0  0  0  0  0  0  0  0  0  0  0  0
    2.8713   -2.5958   -5.8484 H   0  0  0  0  0  0  0  0  0  0  0  0
    3.9022   -1.5899   -4.8177 H   0  0  0  0  0  0  0  0  0  0  0  0
    0.9384    0.5501   -5.7992 H   0  0  0  0  0  0  0  0  0  0  0  0
    2.7111    0.5629   -5.6959 H   0  0  0  0  0  0  0  0  0  0  0  0
    1.8812   -0.5681   -6.7777 H   0  0  0  0  0  0  0  0  0  0  0  0
    4.1598   -1.7108    1.0615 H   0  0  0  0  0  0  0  0  0  0  0  0
    3.1892   -0.3147    1.5378 H   0  0  0  0  0  0  0  0  0  0  0  0
    3.0085   -3.1236    2.7125 H   0  0  0  0  0  0  0  0  0  0  0  0
    3.6522   -1.6880    3.4920 H   0  0  0  0  0  0  0  0  0  0  0  0
    6.4110   -1.3754    7.4698 H   0  0  0  0  0  0  0  0  0  0  0  0
    5.1393   -1.6633    6.2719 H   0  0  0  0  0  0  0  0  0  0  0  0
    6.4681   -0.5219    5.9549 H   0  0  0  0  0  0  0  0  0  0  0  0
    4.9832   -0.8122    9.1820 H   0  0  0  0  0  0  0  0  0  0  0  0
    3.8338    0.4878    9.0860 H   0  0  0  0  0  0  0  0  0  0  0  0
    3.5059   -1.0395    8.2310 H   0  0  0  0  0  0  0  0  0  0  0  0
    2.6885    1.8386    7.7722 H   0  0  0  0  0  0  0  0  0  0  0  0
    4.1991    2.7619    7.6167 H   0  0  0  0  0  0  0  0  0  0  0  0
    2.9740    2.8081    6.3451 H   0  0  0  0  0  0  0  0  0  0  0  0
    5.8554    2.1400    5.6405 H   0  0  0  0  0  0  0  0  0  0  0  0
    5.4254    0.7922    4.5645 H   0  0  0  0  0  0  0  0  0  0  0  0
    4.4285    2.2306    4.5992 H   0  0  0  0  0  0  0  0  0  0  0  0
    0.5288   -3.2630    2.2346 H   0  0  0  0  0  0  0  0  0  0  0  0
   -0.4919   -1.8956    2.7002 H   0  0  0  0  0  0  0  0  0  0  0  0
    0.5440   -0.4415    1.0150 H   0  0  0  0  0  0  0  0  0  0  0  0
   -0.0879   -1.9030    0.2694 H   0  0  0  0  0  0  0  0  0  0  0  0
    0.7903   -3.2009   -1.3712 H   0  0  0  0  0  0  0  0  0  0  0  0
   -0.2810   -2.0662   -2.1989 H   0  0  0  0  0  0  0  0  0  0  0  0
    0.8630   -3.0838   -3.1118 H   0  0  0  0  0  0  0  0  0  0  0  0
    1.8066    4.5238   -3.3914 H   0  0  0  0  0  0  0  0  0  0  0  0
    0.3224    5.1327   -2.6621 H   0  0  0  0  0  0  0  0  0  0  0  0
    1.9287    5.2188   -0.9442 H   0  0  0  0  0  0  0  0  0  0  0  0
   -0.2346    4.1644   -0.2070 H   0  0  0  0  0  0  0  0  0  0  0  0
    0.4800    2.5515   -0.5544 H   0  0  0  0  0  0  0  0  0  0  0  0
    3.1151    2.8143    2.0108 H   0  0  0  0  0  0  0  0  0  0  0  0
    2.3955    1.7238    0.8071 H   0  0  0  0  0  0  0  0  0  0  0  0
    3.8118    4.3924    0.2403 H   0  0  0  0  0  0  0  0  0  0  0  0
    4.4046    2.7705   -0.1404 H   0  0  0  0  0  0  0  0  0  0  0  0
   -2.0868    4.4627   -6.1366 H   0  0  0  0  0  0  0  0  0  0  0  0
   -3.5653    3.6943   -5.5286 H   0  0  0  0  0  0  0  0  0  0  0  0
   -2.1978    6.2177   -4.4276 H   0  0  0  0  0  0  0  0  0  0  0  0
   -3.7540    6.1628   -5.2604 H   0  0  0  0  0  0  0  0  0  0  0  0
   -4.7873    4.9630   -3.4170 H   0  0  0  0  0  0  0  0  0  0  0  0
   -3.9300    6.3391   -2.7379 H   0  0  0  0  0  0  0  0  0  0  0  0
    0.2325    2.6496    5.4960 H   0  0  0  0  0  0  0  0  0  0  0  0
    1.6499    3.6119    3.7301 H   0  0  0  0  0  0  0  0  0  0  0  0
   -1.0687    2.1071    0.7445 H   0  0  0  0  0  0  0  0  0  0  0  0
  1  2  1  0
  2  3  1  0
  2  5  1  0
  3  4  1  0
  5  6  2  0
  5 10  1  0
  6  7  1  0
  7  8  2  0
  8  9  1  0
  9 10  2  0
 10 11  1  0
 11 12  1  0
 11 15  2  0
 12 13  1  0
 12 68  1  0
 13 14  1  0
 15 16  1  0
 15 67  1  0
 16 17  1  0
 17 18  1  0
 17 19  1  0
 17 20  1  0
 20 21  1  0
 21 22  1  0
 22 23  1  0
 22 66  2  0
 23 24  1  0
 23 65  1  0
 24 25  1  0
 25 26  1  0
 25 63  1  0
 26 27  1  0
 26 62  2  0
 27 28  1  0
 27 55  1  0
 28 29  1  0
 29 30  1  0
 29 54  2  0
 30 31  1  0
 30 34  1  0
 31 32  1  0
 31 33  1  0
 34 35  1  0
 34 53  1  0
 35 36  1  0
 35 52  2  0
 36 37  1  0
 36 51  1  0
 36 73  1  0
 37 38  1  0
 38 39  1  0
 39 40  1  0
 39 50  1  0
 40 41  1  0
 40 49  2  0
 42 43  1  0
 43 44  1  0
 43 47  1  0
 43 48  1  0
 44 45  1  0
 44 46  1  0
 50 51  1  0
 55 56  1  0
 56 57  1  0
 56 61  1  0
 57 58  1  0
 58 59  1  0
 58 71  1  0
 59 60  1  0
 60 61  1  0
 63 64  1  0
 64 65  1  0
 67 68  2  0
 67 72  1  0
 68 69  1  0
 69 70  2  0
 70 71  1  0
 71 72  2  0
 41 42  3  0
  1 74  1  0
  1 75  1  0
  1 76  1  0
  2 77  1  1
  4 78  1  0
  4 79  1  0
  4 80  1  0
  7 81  1  0
  8 82  1  0
  9 83  1  0
 13 84  1  0
 13 85  1  0
 14 86  1  0
 14 87  1  0
 14 88  1  0
 16 89  1  0
 16 90  1  0
 18 91  1  0
 18 92  1  0
 18 93  1  0
 19 94  1  0
 19 95  1  0
 19 96  1  0
 20 97  1  0
 20 98  1  0
 23 99  1  1
 24100  1  0
 27101  1  1
 28102  1  0
 30103  1  1
 31104  1  0
 32105  1  0
 32106  1  0
 32107  1  0
 33108  1  0
 33109  1  0
 33110  1  0
 37111  1  0
 37112  1  0
 38113  1  0
 38114  1  0
 45115  1  0
 45116  1  0
 45117  1  0
 46118  1  0
 46119  1  0
 46120  1  0
 47121  1  0
 47122  1  0
 47123  1  0
 48124  1  0
 48125  1  0
 48126  1  0
 50127  1  0
 50128  1  0
 51129  1  0
 51130  1  0
 53131  1  0
 53132  1  0
 53133  1  0
 55134  1  0
 55135  1  0
 56136  1  1
 57137  1  0
 57138  1  0
 59139  1  0
 59140  1  0
 60141  1  0
 60142  1  0
 63143  1  0
 63144  1  0
 64145  1  0
 64146  1  0
 65147  1  0
 65148  1  0
 69149  1  0
 70150  1  0
 72151  1  0
M  END
$$$$
