 energy: -221.285824454184 gnorm: 0.000408985822 xtb: 6.7.1 (edcfbbe)
          08232518103D

151157  0     0  0            999 V2000
   -5.8298    2.2251    6.5923 C   0  0  0  0  0  0  0  0  0  0  0  0
   -5.2415    1.9075    5.2169 C   0  0  0  0  0  0  0  0  0  0  0  0
   -6.0585    2.3828    4.1549 O   0  0  0  0  0  0  0  0  0  0  0  0
   -5.9824    3.7651    3.9296 C   0  0  0  0  0  0  0  0  0  0  0  0
   -5.1312    0.4072    5.0249 C   0  0  0  0  0  0  0  0  0  0  0  0
   -6.1689   -0.3029    5.4352 N   0  0  0  0  0  0  0  0  0  0  0  0
   -6.1782   -1.6080    5.2457 C   0  0  0  0  0  0  0  0  0  0  0  0
   -5.1372   -2.2914    4.6368 C   0  0  0  0  0  0  0  0  0  0  0  0
   -4.0386   -1.5607    4.2239 C   0  0  0  0  0  0  0  0  0  0  0  0
   -4.0159   -0.1799    4.4108 C   0  0  0  0  0  0  0  0  0  0  0  0
   -2.8511    0.5818    3.9486 C   0  0  0  0  0  0  0  0  0  0  0  0
   -1.9751    1.1882    4.8251 N   0  0  0  0  0  0  0  0  0  0  0  0
   -1.9615    1.0223    6.2577 C   0  0  0  0  0  0  0  0  0  0  0  0
   -2.0608    2.3424    7.0211 C   0  0  0  0  0  0  0  0  0  0  0  0
   -2.4426    0.7759    2.6484 C   0  0  0  0  0  0  0  0  0  0  0  0
   -2.9824    0.2073    1.3713 C   0  0  0  0  0  0  0  0  0  0  0  0
   -4.1381    0.9545    0.6654 C   0  0  0  0  0  0  0  0  0  0  0  0
   -5.4499    0.7439    1.4222 C   0  0  0  0  0  0  0  0  0  0  0  0
   -4.2849    0.3678   -0.7432 C   0  0  0  0  0  0  0  0  0  0  0  0
   -3.8630    2.4728    0.5888 C   0  0  0  0  0  0  0  0  0  0  0  0
   -3.2300    2.9023   -0.6245 O   0  0  0  0  0  0  0  0  0  0  0  0
   -4.0163    3.4281   -1.5585 C   0  0  0  0  0  0  0  0  0  0  0  0
   -3.2059    3.9196   -2.7560 C   0  0  0  0  0  0  0  0  0  0  0  0
   -2.5070    2.8219   -3.4159 N   0  0  0  0  0  0  0  0  0  0  0  0
   -1.6570    3.3236   -4.4086 N   0  0  0  0  0  0  0  0  0  0  0  0
   -0.3700    3.7030   -4.2499 C   0  0  0  0  0  0  0  0  0  0  0  0
    0.2641    3.4042   -2.8772 C   0  0  0  0  0  0  0  0  0  0  0  0
    1.0501    2.1912   -2.9764 N   0  0  0  0  0  0  0  0  0  0  0  0
    0.5284    0.9811   -2.7411 C   0  0  0  0  0  0  0  0  0  0  0  0
    1.4944   -0.1897   -2.9445 C   0  0  0  0  0  0  0  0  0  0  0  0
    1.3784   -0.7813   -4.3580 C   0  0  0  0  0  0  0  0  0  0  0  0
    2.4611   -1.8407   -4.5649 C   0  0  0  0  0  0  0  0  0  0  0  0
    1.5304    0.3150   -5.4124 C   0  0  0  0  0  0  0  0  0  0  0  0
    1.2667   -1.1552   -1.8649 N   0  0  0  0  0  0  0  0  0  0  0  0
    1.8384   -0.8081   -0.6966 C   0  0  0  0  0  0  0  0  0  0  0  0
    1.6475   -1.6783    0.5597 C   0  0  0  0  0  0  0  0  0  0  0  0
    2.7533   -1.3415    1.5651 C   0  0  0  0  0  0  0  0  0  0  0  0
    2.5495   -2.1074    2.8705 C   0  0  0  0  0  0  0  0  0  0  0  0
    1.2301   -1.8765    3.3996 N   0  0  0  0  0  0  0  0  0  0  0  0
    0.9524   -1.1818    4.5286 C   0  0  0  0  0  0  0  0  0  0  0  0
    2.0864   -0.5404    5.1453 C   0  0  0  0  0  0  0  0  0  0  0  0
    2.8937    0.1882    5.6632 C   0  0  0  0  0  0  0  0  0  0  0  0
    3.9795    0.9357    6.2954 C   0  0  0  0  0  0  0  0  0  0  0  0
    4.7997    0.0640    7.1532 N   0  0  0  0  0  0  0  0  0  0  0  0
    5.4567   -1.0123    6.4367 C   0  0  0  0  0  0  0  0  0  0  0  0
    4.0820   -0.4646    8.2993 C   0  0  0  0  0  0  0  0  0  0  0  0
    3.3728    2.0761    7.1280 C   0  0  0  0  0  0  0  0  0  0  0  0
    4.8523    1.5581    5.1922 C   0  0  0  0  0  0  0  0  0  0  0  0
   -0.1722   -1.0856    4.9895 O   0  0  0  0  0  0  0  0  0  0  0  0
    0.1633   -2.2514    2.5060 C   0  0  0  0  0  0  0  0  0  0  0  0
    0.2798   -1.4469    1.2083 C   0  0  0  0  0  0  0  0  0  0  0  0
    2.5402    0.1901   -0.6059 O   0  0  0  0  0  0  0  0  0  0  0  0
    0.2081   -2.1263   -2.0351 C   0  0  0  0  0  0  0  0  0  0  0  0
   -0.6281    0.8162   -2.3788 O   0  0  0  0  0  0  0  0  0  0  0  0
    1.1247    4.5894   -2.4402 C   0  0  0  0  0  0  0  0  0  0  0  0
    1.7552    4.4400   -1.0462 C   0  0  0  0  0  0  0  0  0  0  0  0
    0.9350    3.5303   -0.1320 C   0  0  0  0  0  0  0  0  0  0  0  0
    1.5408    3.4396    1.1812 N   0  0  0  0  0  0  0  0  0  0  0  0
    2.9075    2.9483    1.0489 C   0  0  0  0  0  0  0  0  0  0  0  0
    3.6819    3.8523    0.0884 C   0  0  0  0  0  0  0  0  0  0  0  0
    3.0671    3.9259   -1.1779 O   0  0  0  0  0  0  0  0  0  0  0  0
    0.2828    4.1850   -5.1582 O   0  0  0  0  0  0  0  0  0  0  0  0
   -2.4364    3.8302   -5.5232 C   0  0  0  0  0  0  0  0  0  0  0  0
   -3.2899    4.9978   -5.0205 C   0  0  0  0  0  0  0  0  0  0  0  0
   -4.1149    4.5591   -3.8108 C   0  0  0  0  0  0  0  0  0  0  0  0
   -5.2067    3.5663   -1.4617 O   0  0  0  0  0  0  0  0  0  0  0  0
   -1.2468    1.5492    2.7292 C   0  0  0  0  0  0  0  0  0  0  0  0
   -0.9590    1.7445    4.0975 C   0  0  0  0  0  0  0  0  0  0  0  0
    0.2183    2.3827    4.4767 C   0  0  0  0  0  0  0  0  0  0  0  0
    1.0402    2.8839    3.4922 C   0  0  0  0  0  0  0  0  0  0  0  0
    0.7284    2.7684    2.1250 C   0  0  0  0  0  0  0  0  0  0  0  0
   -0.4050    2.0687    1.7483 C   0  0  0  0  0  0  0  0  0  0  0  0
    1.7770   -3.0285    0.2214 F   0  0  0  0  0  0  0  0  0  0  0  0
   -5.2226    1.7651    7.3673 H   0  0  0  0  0  0  0  0  0  0  0  0
   -5.8655    3.2985    6.7630 H   0  0  0  0  0  0  0  0  0  0  0  0
   -6.8338    1.8150    6.6433 H   0  0  0  0  0  0  0  0  0  0  0  0
   -4.2454    2.3635    5.1098 H   0  0  0  0  0  0  0  0  0  0  0  0
   -6.4169    4.3431    4.7523 H   0  0  0  0  0  0  0  0  0  0  0  0
   -4.9427    4.0858    3.7795 H   0  0  0  0  0  0  0  0  0  0  0  0
   -6.5527    3.9553    3.0221 H   0  0  0  0  0  0  0  0  0  0  0  0
   -7.0593   -2.1241    5.6043 H   0  0  0  0  0  0  0  0  0  0  0  0
   -5.1800   -3.3611    4.5014 H   0  0  0  0  0  0  0  0  0  0  0  0
   -3.1864   -2.0473    3.7724 H   0  0  0  0  0  0  0  0  0  0  0  0
   -2.7983    0.3740    6.5281 H   0  0  0  0  0  0  0  0  0  0  0  0
   -1.0333    0.5082    6.5280 H   0  0  0  0  0  0  0  0  0  0  0  0
   -2.0019    2.1439    8.0884 H   0  0  0  0  0  0  0  0  0  0  0  0
   -1.2505    3.0120    6.7484 H   0  0  0  0  0  0  0  0  0  0  0  0
   -3.0010    2.8471    6.8182 H   0  0  0  0  0  0  0  0  0  0  0  0
   -2.1496    0.1646    0.6663 H   0  0  0  0  0  0  0  0  0  0  0  0
   -3.3223   -0.8159    1.5492 H   0  0  0  0  0  0  0  0  0  0  0  0
   -5.4256    1.2147    2.3993 H   0  0  0  0  0  0  0  0  0  0  0  0
   -6.2792    1.1678    0.8604 H   0  0  0  0  0  0  0  0  0  0  0  0
   -5.6407   -0.3183    1.5599 H   0  0  0  0  0  0  0  0  0  0  0  0
   -4.5410   -0.6873   -0.6761 H   0  0  0  0  0  0  0  0  0  0  0  0
   -5.0771    0.8767   -1.2875 H   0  0  0  0  0  0  0  0  0  0  0  0
   -3.3594    0.4627   -1.3081 H   0  0  0  0  0  0  0  0  0  0  0  0
   -4.8081    3.0165    0.6759 H   0  0  0  0  0  0  0  0  0  0  0  0
   -3.1916    2.7765    1.3944 H   0  0  0  0  0  0  0  0  0  0  0  0
   -2.4978    4.6771   -2.3654 H   0  0  0  0  0  0  0  0  0  0  0  0
   -2.0269    2.1727   -2.7939 H   0  0  0  0  0  0  0  0  0  0  0  0
   -0.5227    3.2284   -2.1404 H   0  0  0  0  0  0  0  0  0  0  0  0
    2.0247    2.3048   -3.2067 H   0  0  0  0  0  0  0  0  0  0  0  0
    2.5170    0.1791   -2.8070 H   0  0  0  0  0  0  0  0  0  0  0  0
    0.3878   -1.2268   -4.4818 H   0  0  0  0  0  0  0  0  0  0  0  0
    2.4502   -2.5896   -3.7776 H   0  0  0  0  0  0  0  0  0  0  0  0
    2.3194   -2.3412   -5.5198 H   0  0  0  0  0  0  0  0  0  0  0  0
    3.4428   -1.3718   -4.5675 H   0  0  0  0  0  0  0  0  0  0  0  0
    0.7243    1.0419   -5.3560 H   0  0  0  0  0  0  0  0  0  0  0  0
    2.4780    0.8369   -5.2972 H   0  0  0  0  0  0  0  0  0  0  0  0
    1.5105   -0.1313   -6.4038 H   0  0  0  0  0  0  0  0  0  0  0  0
    3.7220   -1.5914    1.1306 H   0  0  0  0  0  0  0  0  0  0  0  0
    2.7252   -0.2684    1.7533 H   0  0  0  0  0  0  0  0  0  0  0  0
    2.6609   -3.1826    2.6816 H   0  0  0  0  0  0  0  0  0  0  0  0
    3.2947   -1.7989    3.6057 H   0  0  0  0  0  0  0  0  0  0  0  0
    6.0742   -1.5646    7.1438 H   0  0  0  0  0  0  0  0  0  0  0  0
    4.7489   -1.7164    5.9726 H   0  0  0  0  0  0  0  0  0  0  0  0
    6.1115   -0.6105    5.6683 H   0  0  0  0  0  0  0  0  0  0  0  0
    4.7569   -1.1133    8.8555 H   0  0  0  0  0  0  0  0  0  0  0  0
    3.7818    0.3448    8.9598 H   0  0  0  0  0  0  0  0  0  0  0  0
    3.1932   -1.0479    8.0177 H   0  0  0  0  0  0  0  0  0  0  0  0
    2.5736    1.7185    7.7713 H   0  0  0  0  0  0  0  0  0  0  0  0
    4.1498    2.5327    7.7356 H   0  0  0  0  0  0  0  0  0  0  0  0
    2.9555    2.8287    6.4636 H   0  0  0  0  0  0  0  0  0  0  0  0
    5.7554    1.9672    5.6371 H   0  0  0  0  0  0  0  0  0  0  0  0
    5.1225    0.8304    4.4317 H   0  0  0  0  0  0  0  0  0  0  0  0
    4.3037    2.3582    4.7020 H   0  0  0  0  0  0  0  0  0  0  0  0
    0.2226   -3.3244    2.2910 H   0  0  0  0  0  0  0  0  0  0  0  0
   -0.7824   -2.0284    3.0029 H   0  0  0  0  0  0  0  0  0  0  0  0
    0.1926   -0.3824    1.4345 H   0  0  0  0  0  0  0  0  0  0  0  0
   -0.5285   -1.7272    0.5349 H   0  0  0  0  0  0  0  0  0  0  0  0
    0.1599   -2.8006   -1.1894 H   0  0  0  0  0  0  0  0  0  0  0  0
   -0.7472   -1.6077   -2.1486 H   0  0  0  0  0  0  0  0  0  0  0  0
    0.3941   -2.7293   -2.9222 H   0  0  0  0  0  0  0  0  0  0  0  0
    1.9245    4.7357   -3.1681 H   0  0  0  0  0  0  0  0  0  0  0  0
    0.4955    5.4808   -2.4541 H   0  0  0  0  0  0  0  0  0  0  0  0
    1.8251    5.4368   -0.5755 H   0  0  0  0  0  0  0  0  0  0  0  0
   -0.0708    3.9409   -0.0179 H   0  0  0  0  0  0  0  0  0  0  0  0
    0.8952    2.5333   -0.5918 H   0  0  0  0  0  0  0  0  0  0  0  0
    3.3929    2.9484    2.0255 H   0  0  0  0  0  0  0  0  0  0  0  0
    2.9142    1.9285    0.6376 H   0  0  0  0  0  0  0  0  0  0  0  0
    3.7599    4.8646    0.5160 H   0  0  0  0  0  0  0  0  0  0  0  0
    4.6819    3.4507   -0.0821 H   0  0  0  0  0  0  0  0  0  0  0  0
   -1.7458    4.1467   -6.3046 H   0  0  0  0  0  0  0  0  0  0  0  0
   -3.0713    3.0189   -5.8845 H   0  0  0  0  0  0  0  0  0  0  0  0
   -2.6280    5.8202   -4.7384 H   0  0  0  0  0  0  0  0  0  0  0  0
   -3.9465    5.3466   -5.8172 H   0  0  0  0  0  0  0  0  0  0  0  0
   -4.8516    3.8141   -4.1125 H   0  0  0  0  0  0  0  0  0  0  0  0
   -4.6464    5.4055   -3.3763 H   0  0  0  0  0  0  0  0  0  0  0  0
    0.4965    2.4811    5.5142 H   0  0  0  0  0  0  0  0  0  0  0  0
    1.9422    3.4085    3.7699 H   0  0  0  0  0  0  0  0  0  0  0  0
   -0.6699    1.9177    0.7149 H   0  0  0  0  0  0  0  0  0  0  0  0
  1  2  1  0  0  0  0
  2  3  1  0  0  0  0
  2  5  1  0  0  0  0
  3  4  1  0  0  0  0
  5  6  2  0  0  0  0
  5 10  1  0  0  0  0
  6  7  1  0  0  0  0
  7  8  2  0  0  0  0
  8  9  1  0  0  0  0
  9 10  2  0  0  0  0
 10 11  1  0  0  0  0
 11 12  1  0  0  0  0
 11 15  2  0  0  0  0
 12 13  1  0  0  0  0
 12 68  1  0  0  0  0
 13 14  1  0  0  0  0
 15 16  1  0  0  0  0
 15 67  1  0  0  0  0
 16 17  1  0  0  0  0
 17 18  1  0  0  0  0
 17 19  1  0  0  0  0
 17 20  1  0  0  0  0
 20 21  1  0  0  0  0
 21 22  1  0  0  0  0
 22 23  1  0  0  0  0
 22 66  2  0  0  0  0
 23 24  1  0  0  0  0
 23 65  1  0  0  0  0
 24 25  1  0  0  0  0
 25 26  1  0  0  0  0
 25 63  1  0  0  0  0
 26 27  1  0  0  0  0
 26 62  2  0  0  0  0
 27 28  1  0  0  0  0
 27 55  1  0  0  0  0
 28 29  1  0  0  0  0
 29 30  1  0  0  0  0
 29 54  2  0  0  0  0
 30 31  1  0  0  0  0
 30 34  1  0  0  0  0
 31 32  1  0  0  0  0
 31 33  1  0  0  0  0
 34 35  1  0  0  0  0
 34 53  1  0  0  0  0
 35 36  1  0  0  0  0
 35 52  2  0  0  0  0
 36 37  1  0  0  0  0
 36 51  1  0  0  0  0
 36 73  1  0  0  0  0
 37 38  1  0  0  0  0
 38 39  1  0  0  0  0
 39 40  1  0  0  0  0
 39 50  1  0  0  0  0
 40 41  1  0  0  0  0
 40 49  2  0  0  0  0
 42 43  1  0  0  0  0
 43 44  1  0  0  0  0
 43 47  1  0  0  0  0
 43 48  1  0  0  0  0
 44 45  1  0  0  0  0
 44 46  1  0  0  0  0
 50 51  1  0  0  0  0
 55 56  1  0  0  0  0
 56 57  1  0  0  0  0
 56 61  1  0  0  0  0
 57 58  1  0  0  0  0
 58 59  1  0  0  0  0
 58 71  1  0  0  0  0
 59 60  1  0  0  0  0
 60 61  1  0  0  0  0
 63 64  1  0  0  0  0
 64 65  1  0  0  0  0
 67 68  2  0  0  0  0
 67 72  1  0  0  0  0
 68 69  1  0  0  0  0
 69 70  2  0  0  0  0
 70 71  1  0  0  0  0
 71 72  2  0  0  0  0
 41 42  3  0  0  0  0
  1 74  1  0  0  0  0
  1 75  1  0  0  0  0
  1 76  1  0  0  0  0
  2 77  1  0  0  0  0
  4 78  1  0  0  0  0
  4 79  1  0  0  0  0
  4 80  1  0  0  0  0
  7 81  1  0  0  0  0
  8 82  1  0  0  0  0
  9 83  1  0  0  0  0
 13 84  1  0  0  0  0
 13 85  1  0  0  0  0
 14 86  1  0  0  0  0
 14 87  1  0  0  0  0
 14 88  1  0  0  0  0
 16 89  1  0  0  0  0
 16 90  1  0  0  0  0
 18 91  1  0  0  0  0
 18 92  1  0  0  0  0
 18 93  1  0  0  0  0
 19 94  1  0  0  0  0
 19 95  1  0  0  0  0
 19 96  1  0  0  0  0
 20 97  1  0  0  0  0
 20 98  1  0  0  0  0
 23 99  1  0  0  0  0
 24100  1  0  0  0  0
 27101  1  0  0  0  0
 28102  1  0  0  0  0
 30103  1  0  0  0  0
 31104  1  0  0  0  0
 32105  1  0  0  0  0
 32106  1  0  0  0  0
 32107  1  0  0  0  0
 33108  1  0  0  0  0
 33109  1  0  0  0  0
 33110  1  0  0  0  0
 37111  1  0  0  0  0
 37112  1  0  0  0  0
 38113  1  0  0  0  0
 38114  1  0  0  0  0
 45115  1  0  0  0  0
 45116  1  0  0  0  0
 45117  1  0  0  0  0
 46118  1  0  0  0  0
 46119  1  0  0  0  0
 46120  1  0  0  0  0
 47121  1  0  0  0  0
 47122  1  0  0  0  0
 47123  1  0  0  0  0
 48124  1  0  0  0  0
 48125  1  0  0  0  0
 48126  1  0  0  0  0
 50127  1  0  0  0  0
 50128  1  0  0  0  0
 51129  1  0  0  0  0
 51130  1  0  0  0  0
 53131  1  0  0  0  0
 53132  1  0  0  0  0
 53133  1  0  0  0  0
 55134  1  0  0  0  0
 55135  1  0  0  0  0
 56136  1  0  0  0  0
 57137  1  0  0  0  0
 57138  1  0  0  0  0
 59139  1  0  0  0  0
 59140  1  0  0  0  0
 60141  1  0  0  0  0
 60142  1  0  0  0  0
 63143  1  0  0  0  0
 63144  1  0  0  0  0
 64145  1  0  0  0  0
 64146  1  0  0  0  0
 65147  1  0  0  0  0
 65148  1  0  0  0  0
 69149  1  0  0  0  0
 70150  1  0  0  0  0
 72151  1  0  0  0  0
M  END
$$$$
